MODEL 1
REMARK VINA RESULT:      -7.9      0.000      0.000
REMARK  2 active torsions:
REMARK  status: ('A' for Active; 'I' for Inactive)
REMARK    1  A    between atoms: N_3  and  C_15 
REMARK    2  A    between atoms: C_5  and  C_7 
ROOT
HETATM    1  S   UNL     1      24.045  12.261 -14.858  1.00  0.00    -0.069 SA
HETATM    2  N   UNL     1      26.461  11.495 -14.864  1.00  0.00    -0.344 N 
HETATM    3  C   UNL     1      26.047  11.544 -13.557  1.00  0.00     0.052 A 
HETATM    4  C   UNL     1      25.445  11.842 -15.726  1.00  0.00     0.087 A 
HETATM    5  C   UNL     1      24.734  11.949 -13.372  1.00  0.00     0.034 A 
HETATM    6  C   UNL     1      26.834  11.240 -12.433  1.00  0.00     0.031 A 
HETATM    7  C   UNL     1      24.151  12.064 -12.113  1.00  0.00     0.028 A 
HETATM    8  C   UNL     1      27.851  11.170 -15.211  1.00  0.00     0.157 C 
HETATM    9  C   UNL     1      24.930  11.756 -10.983  1.00  0.00    -0.061 A 
HETATM   10  C   UNL     1      26.270  11.345 -11.151  1.00  0.00     0.009 A 
HETATM   11  C   UNL     1      24.354  11.861  -9.604  1.00  0.00     0.048 C 
ENDROOT
BRANCH   4  12
HETATM   12  C   UNL     1      25.457  11.847 -17.225  1.00  0.00    -0.002 A 
HETATM   13  C   UNL     1      26.635  11.707 -17.981  1.00  0.00     0.016 A 
HETATM   14  C   UNL     1      26.598  11.695 -19.379  1.00  0.00     0.030 A 
HETATM   15  C   UNL     1      25.379  11.813 -20.080  1.00  0.00     0.029 A 
HETATM   16  C   UNL     1      24.198  11.931 -19.317  1.00  0.00     0.030 A 
HETATM   17  C   UNL     1      24.238  11.938 -17.921  1.00  0.00     0.016 A 
BRANCH  15  18
HETATM   18  N   UNL     1      25.340  11.802 -21.524  1.00  0.00    -0.390 N 
HETATM   19  C   UNL     1      24.187  12.333 -22.239  1.00  0.00     0.149 C 
HETATM   20  C   UNL     1      26.452  11.258 -22.292  1.00  0.00     0.149 C 
ENDBRANCH  15  18
ENDBRANCH   4  12
TORSDOF 2
ENDMDL
MODEL 2
REMARK VINA RESULT:      -7.9      0.192      1.340
REMARK  2 active torsions:
REMARK  status: ('A' for Active; 'I' for Inactive)
REMARK    1  A    between atoms: N_3  and  C_15 
REMARK    2  A    between atoms: C_5  and  C_7 
ROOT
HETATM    1  S   UNL     1      23.968  12.257 -14.738  1.00  0.00    -0.069 SA
HETATM    2  N   UNL     1      26.398  11.542 -14.766  1.00  0.00    -0.344 N 
HETATM    3  C   UNL     1      26.001  11.602 -13.454  1.00  0.00     0.052 A 
HETATM    4  C   UNL     1      25.364  11.855 -15.619  1.00  0.00     0.087 A 
HETATM    5  C   UNL     1      24.683  11.982 -13.257  1.00  0.00     0.034 A 
HETATM    6  C   UNL     1      26.810  11.332 -12.336  1.00  0.00     0.031 A 
HETATM    7  C   UNL     1      24.114  12.103 -11.993  1.00  0.00     0.028 A 
HETATM    8  C   UNL     1      27.791  11.243 -15.127  1.00  0.00     0.157 C 
HETATM    9  C   UNL     1      24.915  11.829 -10.869  1.00  0.00    -0.061 A 
HETATM   10  C   UNL     1      26.261  11.444 -11.049  1.00  0.00     0.009 A 
HETATM   11  C   UNL     1      24.355  11.942  -9.483  1.00  0.00     0.048 C 
ENDROOT
BRANCH   4  12
HETATM   12  C   UNL     1      25.356  11.838 -17.118  1.00  0.00    -0.002 A 
HETATM   13  C   UNL     1      24.227  12.184 -17.881  1.00  0.00     0.016 A 
HETATM   14  C   UNL     1      24.271  12.176 -19.279  1.00  0.00     0.030 A 
HETATM   15  C   UNL     1      25.449  11.830 -19.973  1.00  0.00     0.029 A 
HETATM   16  C   UNL     1      26.586  11.506 -19.203  1.00  0.00     0.030 A 
HETATM   17  C   UNL     1      26.541  11.519 -17.806  1.00  0.00     0.016 A 
BRANCH  15  18
HETATM   18  N   UNL     1      25.495  11.821 -21.416  1.00  0.00    -0.390 N 
HETATM   19  C   UNL     1      26.722  11.466 -22.117  1.00  0.00     0.149 C 
HETATM   20  C   UNL     1      24.316  12.167 -22.198  1.00  0.00     0.149 C 
ENDBRANCH  15  18
ENDBRANCH   4  12
TORSDOF 2
ENDMDL
MODEL 3
REMARK VINA RESULT:      -7.8      1.631      7.676
REMARK  2 active torsions:
REMARK  status: ('A' for Active; 'I' for Inactive)
REMARK    1  A    between atoms: N_3  and  C_15 
REMARK    2  A    between atoms: C_5  and  C_7 
ROOT
HETATM    1  S   UNL     1      24.168  12.243 -17.548  1.00  0.00    -0.069 SA
HETATM    2  N   UNL     1      26.633  11.660 -17.578  1.00  0.00    -0.344 N 
HETATM    3  C   UNL     1      26.211  11.733 -18.882  1.00  0.00     0.052 A 
HETATM    4  C   UNL     1      25.611  11.948 -16.702  1.00  0.00     0.087 A 
HETATM    5  C   UNL     1      24.871  12.046 -19.047  1.00  0.00     0.034 A 
HETATM    6  C   UNL     1      27.006  11.506 -20.019  1.00  0.00     0.031 A 
HETATM    7  C   UNL     1      24.271  12.154 -20.299  1.00  0.00     0.028 A 
HETATM    8  C   UNL     1      28.004  11.249 -17.244  1.00  0.00     0.157 C 
HETATM    9  C   UNL     1      25.061  11.934 -21.442  1.00  0.00    -0.061 A 
HETATM   10  C   UNL     1      26.427  11.609 -21.294  1.00  0.00     0.009 A 
HETATM   11  C   UNL     1      24.468  12.037 -22.814  1.00  0.00     0.048 C 
ENDROOT
BRANCH   4  12
HETATM   12  C   UNL     1      25.668  12.049 -15.208  1.00  0.00    -0.002 A 
HETATM   13  C   UNL     1      26.715  12.689 -14.523  1.00  0.00     0.016 A 
HETATM   14  C   UNL     1      26.717  12.780 -13.127  1.00  0.00     0.030 A 
HETATM   15  C   UNL     1      25.664  12.241 -12.358  1.00  0.00     0.029 A 
HETATM   16  C   UNL     1      24.604  11.619 -13.051  1.00  0.00     0.030 A 
HETATM   17  C   UNL     1      24.604  11.535 -14.445  1.00  0.00     0.016 A 
BRANCH  15  18
HETATM   18  N   UNL     1      25.665  12.333 -10.917  1.00  0.00    -0.390 N 
HETATM   19  C   UNL     1      26.871  12.724 -10.199  1.00  0.00     0.149 C 
HETATM   20  C   UNL     1      24.461  12.036 -10.153  1.00  0.00     0.149 C 
ENDBRANCH  15  18
ENDBRANCH   4  12
TORSDOF 2
ENDMDL
MODEL 4
REMARK VINA RESULT:      -7.7      1.630      7.708
REMARK  2 active torsions:
REMARK  status: ('A' for Active; 'I' for Inactive)
REMARK    1  A    between atoms: N_3  and  C_15 
REMARK    2  A    between atoms: C_5  and  C_7 
ROOT
HETATM    1  S   UNL     1      24.082  12.247 -17.598  1.00  0.00    -0.069 SA
HETATM    2  N   UNL     1      26.546  11.658 -17.544  1.00  0.00    -0.344 N 
HETATM    3  C   UNL     1      26.168  11.731 -18.861  1.00  0.00     0.052 A 
HETATM    4  C   UNL     1      25.496  11.949 -16.703  1.00  0.00     0.087 A 
HETATM    5  C   UNL     1      24.836  12.047 -19.072  1.00  0.00     0.034 A 
HETATM    6  C   UNL     1      27.001  11.501 -19.970  1.00  0.00     0.031 A 
HETATM    7  C   UNL     1      24.278  12.156 -20.343  1.00  0.00     0.028 A 
HETATM    8  C   UNL     1      27.904  11.244 -17.163  1.00  0.00     0.157 C 
HETATM    9  C   UNL     1      25.107  11.933 -21.458  1.00  0.00    -0.061 A 
HETATM   10  C   UNL     1      26.466  11.606 -21.264  1.00  0.00     0.009 A 
HETATM   11  C   UNL     1      24.561  12.037 -22.850  1.00  0.00     0.048 C 
ENDROOT
BRANCH   4  12
HETATM   12  C   UNL     1      25.501  12.050 -15.208  1.00  0.00    -0.002 A 
HETATM   13  C   UNL     1      24.479  11.520 -14.400  1.00  0.00     0.016 A 
HETATM   14  C   UNL     1      24.535  11.617 -13.007  1.00  0.00     0.030 A 
HETATM   15  C   UNL     1      25.623  12.242 -12.360  1.00  0.00     0.029 A 
HETATM   16  C   UNL     1      26.657  12.752 -13.173  1.00  0.00     0.030 A 
HETATM   17  C   UNL     1      26.600  12.649 -14.565  1.00  0.00     0.016 A 
BRANCH  15  18
HETATM   18  N   UNL     1      25.682  12.344 -10.921  1.00  0.00    -0.390 N 
HETATM   19  C   UNL     1      24.516  12.028 -10.106  1.00  0.00     0.149 C 
HETATM   20  C   UNL     1      26.907  12.766 -10.256  1.00  0.00     0.149 C 
ENDBRANCH  15  18
ENDBRANCH   4  12
TORSDOF 2
ENDMDL
MODEL 5
REMARK VINA RESULT:      -7.7      1.304      1.987
REMARK  2 active torsions:
REMARK  status: ('A' for Active; 'I' for Inactive)
REMARK    1  A    between atoms: N_3  and  C_15 
REMARK    2  A    between atoms: C_5  and  C_7 
ROOT
HETATM    1  S   UNL     1      24.308  12.258 -13.197  1.00  0.00    -0.069 SA
HETATM    2  N   UNL     1      26.795  11.781 -13.115  1.00  0.00    -0.344 N 
HETATM    3  C   UNL     1      26.325  11.742 -11.826  1.00  0.00     0.052 A 
HETATM    4  C   UNL     1      25.782  12.032 -14.012  1.00  0.00     0.087 A 
HETATM    5  C   UNL     1      24.967  11.984 -11.690  1.00  0.00     0.034 A 
HETATM    6  C   UNL     1      27.095  11.498 -10.676  1.00  0.00     0.031 A 
HETATM    7  C   UNL     1      24.323  11.993 -10.456  1.00  0.00     0.028 A 
HETATM    8  C   UNL     1      28.228  11.632 -13.407  1.00  0.00     0.157 C 
HETATM    9  C   UNL     1      25.086  11.744  -9.301  1.00  0.00    -0.061 A 
HETATM   10  C   UNL     1      26.470  11.499  -9.419  1.00  0.00     0.009 A 
HETATM   11  C   UNL     1      24.444  11.739  -7.946  1.00  0.00     0.048 C 
ENDROOT
BRANCH   4  12
HETATM   12  C   UNL     1      25.856  12.084 -15.508  1.00  0.00    -0.002 A 
HETATM   13  C   UNL     1      26.779  12.886 -16.202  1.00  0.00     0.016 A 
HETATM   14  C   UNL     1      26.828  12.886 -17.599  1.00  0.00     0.030 A 
HETATM   15  C   UNL     1      25.961  12.077 -18.363  1.00  0.00     0.029 A 
HETATM   16  C   UNL     1      25.051  11.257 -17.662  1.00  0.00     0.030 A 
HETATM   17  C   UNL     1      25.008  11.256 -16.266  1.00  0.00     0.016 A 
BRANCH  15  18
HETATM   18  N   UNL     1      26.010  12.078 -19.806  1.00  0.00    -0.390 N 
HETATM   19  C   UNL     1      27.274  12.268 -20.505  1.00  0.00     0.149 C 
HETATM   20  C   UNL     1      24.797  11.890 -20.590  1.00  0.00     0.149 C 
ENDBRANCH  15  18
ENDBRANCH   4  12
TORSDOF 2
ENDMDL
MODEL 6
REMARK VINA RESULT:      -7.6      2.725      8.801
REMARK  2 active torsions:
REMARK  status: ('A' for Active; 'I' for Inactive)
REMARK    1  A    between atoms: N_3  and  C_15 
REMARK    2  A    between atoms: C_5  and  C_7 
ROOT
HETATM    1  S   UNL     1      24.125  12.244 -12.956  1.00  0.00    -0.069 SA
HETATM    2  N   UNL     1      26.601  11.710 -13.028  1.00  0.00    -0.344 N 
HETATM    3  C   UNL     1      26.155  11.775 -14.324  1.00  0.00     0.052 A 
HETATM    4  C   UNL     1      25.589  11.978 -12.135  1.00  0.00     0.087 A 
HETATM    5  C   UNL     1      24.807  12.061 -14.467  1.00  0.00     0.034 A 
HETATM    6  C   UNL     1      26.935  11.563 -15.474  1.00  0.00     0.031 A 
HETATM    7  C   UNL     1      24.183  12.157 -15.708  1.00  0.00     0.028 A 
HETATM    8  C   UNL     1      27.985  11.327 -12.717  1.00  0.00     0.157 C 
HETATM    9  C   UNL     1      24.959  11.952 -16.864  1.00  0.00    -0.061 A 
HETATM   10  C   UNL     1      26.332  11.655 -16.739  1.00  0.00     0.009 A 
HETATM   11  C   UNL     1      24.340  12.044 -18.227  1.00  0.00     0.048 C 
ENDROOT
BRANCH   4  12
HETATM   12  C   UNL     1      25.668  12.080 -10.642  1.00  0.00    -0.002 A 
HETATM   13  C   UNL     1      26.742  12.693  -9.972  1.00  0.00     0.016 A 
HETATM   14  C   UNL     1      26.765  12.786  -8.577  1.00  0.00     0.030 A 
HETATM   15  C   UNL     1      25.709  12.278  -7.792  1.00  0.00     0.029 A 
HETATM   16  C   UNL     1      24.623  11.683  -8.469  1.00  0.00     0.030 A 
HETATM   17  C   UNL     1      24.601  11.596  -9.863  1.00  0.00     0.016 A 
BRANCH  15  18
HETATM   18  N   UNL     1      25.733  12.372  -6.351  1.00  0.00    -0.390 N 
HETATM   19  C   UNL     1      26.938  12.804  -5.656  1.00  0.00     0.149 C 
HETATM   20  C   UNL     1      24.553  12.037  -5.566  1.00  0.00     0.149 C 
ENDBRANCH  15  18
ENDBRANCH   4  12
TORSDOF 2
ENDMDL
MODEL 7
REMARK VINA RESULT:      -7.6      2.536      4.892
REMARK  2 active torsions:
REMARK  status: ('A' for Active; 'I' for Inactive)
REMARK    1  A    between atoms: N_3  and  C_15 
REMARK    2  A    between atoms: C_5  and  C_7 
ROOT
HETATM    1  S   UNL     1      23.968  12.269 -10.050  1.00  0.00    -0.069 SA
HETATM    2  N   UNL     1      26.393  11.539 -10.116  1.00  0.00    -0.344 N 
HETATM    3  C   UNL     1      26.016  11.598  -8.798  1.00  0.00     0.052 A 
HETATM    4  C   UNL     1      25.348  11.860 -10.953  1.00  0.00     0.087 A 
HETATM    5  C   UNL     1      24.704  11.986  -8.580  1.00  0.00     0.034 A 
HETATM    6  C   UNL     1      26.840  11.321  -7.694  1.00  0.00     0.031 A 
HETATM    7  C   UNL     1      24.155  12.108  -7.307  1.00  0.00     0.028 A 
HETATM    8  C   UNL     1      27.778  11.231 -10.499  1.00  0.00     0.157 C 
HETATM    9  C   UNL     1      24.972  11.826  -6.196  1.00  0.00    -0.061 A 
HETATM   10  C   UNL     1      26.312  11.434  -6.397  1.00  0.00     0.009 A 
HETATM   11  C   UNL     1      24.433  11.940  -4.802  1.00  0.00     0.048 C 
ENDROOT
BRANCH   4  12
HETATM   12  C   UNL     1      25.317  11.846 -12.451  1.00  0.00    -0.002 A 
HETATM   13  C   UNL     1      24.176  12.191 -13.196  1.00  0.00     0.016 A 
HETATM   14  C   UNL     1      24.197  12.186 -14.594  1.00  0.00     0.030 A 
HETATM   15  C   UNL     1      25.366  11.845 -15.307  1.00  0.00     0.029 A 
HETATM   16  C   UNL     1      26.515  11.520 -14.555  1.00  0.00     0.030 A 
HETATM   17  C   UNL     1      26.491  11.531 -13.158  1.00  0.00     0.016 A 
BRANCH  15  18
HETATM   18  N   UNL     1      25.389  11.838 -16.751  1.00  0.00    -0.390 N 
HETATM   19  C   UNL     1      24.197  12.185 -17.514  1.00  0.00     0.149 C 
HETATM   20  C   UNL     1      26.604  11.484 -17.472  1.00  0.00     0.149 C 
ENDBRANCH  15  18
ENDBRANCH   4  12
TORSDOF 2
ENDMDL
MODEL 8
REMARK VINA RESULT:      -7.5      2.303      8.425
REMARK  2 active torsions:
REMARK  status: ('A' for Active; 'I' for Inactive)
REMARK    1  A    between atoms: N_3  and  C_15 
REMARK    2  A    between atoms: C_5  and  C_7 
ROOT
HETATM    1  S   UNL     1      24.104  11.847 -13.809  1.00  0.00    -0.069 SA
HETATM    2  N   UNL     1      26.630  11.657 -13.851  1.00  0.00    -0.344 N 
HETATM    3  C   UNL     1      26.204  11.781 -15.149  1.00  0.00     0.052 A 
HETATM    4  C   UNL     1      25.574  11.704 -12.969  1.00  0.00     0.087 A 
HETATM    5  C   UNL     1      24.833  11.897 -15.308  1.00  0.00     0.034 A 
HETATM    6  C   UNL     1      27.028  11.782 -16.289  1.00  0.00     0.031 A 
HETATM    7  C   UNL     1      24.226  12.022 -16.555  1.00  0.00     0.028 A 
HETATM    8  C   UNL     1      28.047  11.436 -13.532  1.00  0.00     0.157 C 
HETATM    9  C   UNL     1      25.044  12.030 -17.700  1.00  0.00    -0.061 A 
HETATM   10  C   UNL     1      26.443  11.909 -17.559  1.00  0.00     0.009 A 
HETATM   11  C   UNL     1      24.445  12.163 -19.067  1.00  0.00     0.048 C 
ENDROOT
BRANCH   4  12
HETATM   12  C   UNL     1      25.610  11.678 -11.471  1.00  0.00    -0.002 A 
HETATM   13  C   UNL     1      26.786  11.435 -10.738  1.00  0.00     0.016 A 
HETATM   14  C   UNL     1      26.779  11.442  -9.340  1.00  0.00     0.030 A 
HETATM   15  C   UNL     1      25.597  11.702  -8.615  1.00  0.00     0.029 A 
HETATM   16  C   UNL     1      24.425  11.967  -9.354  1.00  0.00     0.030 A 
HETATM   17  C   UNL     1      24.436  11.964 -10.751  1.00  0.00     0.016 A 
BRANCH  15  18
HETATM   18  N   UNL     1      25.589  11.708  -7.171  1.00  0.00    -0.390 N 
HETATM   19  C   UNL     1      26.698  11.134  -6.420  1.00  0.00     0.149 C 
HETATM   20  C   UNL     1      24.472  12.287  -6.437  1.00  0.00     0.149 C 
ENDBRANCH  15  18
ENDBRANCH   4  12
TORSDOF 2
ENDMDL
MODEL 9
REMARK VINA RESULT:      -7.5      2.597      4.832
REMARK  2 active torsions:
REMARK  status: ('A' for Active; 'I' for Inactive)
REMARK    1  A    between atoms: N_3  and  C_15 
REMARK    2  A    between atoms: C_5  and  C_7 
ROOT
HETATM    1  S   UNL     1      24.082  12.232 -19.725  1.00  0.00    -0.069 SA
HETATM    2  N   UNL     1      26.495  11.461 -19.668  1.00  0.00    -0.344 N 
HETATM    3  C   UNL     1      26.068  11.577 -18.369  1.00  0.00     0.052 A 
HETATM    4  C   UNL     1      25.489  11.766 -20.557  1.00  0.00     0.087 A 
HETATM    5  C   UNL     1      24.755  11.993 -18.218  1.00  0.00     0.034 A 
HETATM    6  C   UNL     1      26.844  11.328 -17.223  1.00  0.00     0.031 A 
HETATM    7  C   UNL     1      24.160  12.173 -16.973  1.00  0.00     0.028 A 
HETATM    8  C   UNL     1      27.888  11.116 -19.984  1.00  0.00     0.157 C 
HETATM    9  C   UNL     1      24.928  11.920 -15.821  1.00  0.00    -0.061 A 
HETATM   10  C   UNL     1      26.268  11.499 -15.954  1.00  0.00     0.009 A 
HETATM   11  C   UNL     1      24.338  12.097 -14.454  1.00  0.00     0.048 C 
ENDROOT
BRANCH   4  12
HETATM   12  C   UNL     1      25.516  11.696 -22.053  1.00  0.00    -0.002 A 
HETATM   13  C   UNL     1      26.706  11.573 -22.793  1.00  0.00     0.016 A 
HETATM   14  C   UNL     1      26.683  11.488 -24.188  1.00  0.00     0.030 A 
HETATM   15  C   UNL     1      25.468  11.513 -24.904  1.00  0.00     0.029 A 
HETATM   16  C   UNL     1      24.275  11.613 -24.157  1.00  0.00     0.030 A 
HETATM   17  C   UNL     1      24.301  11.693 -22.762  1.00  0.00     0.016 A 
BRANCH  15  18
HETATM   18  N   UNL     1      25.444  11.426 -26.345  1.00  0.00    -0.390 N 
HETATM   19  C   UNL     1      24.536  12.258 -27.123  1.00  0.00     0.149 C 
HETATM   20  C   UNL     1      26.325  10.504 -27.048  1.00  0.00     0.149 C 
ENDBRANCH  15  18
ENDBRANCH   4  12
TORSDOF 2
ENDMDL
MODEL 10
REMARK VINA RESULT:      -7.4      2.064      3.577
REMARK  2 active torsions:
REMARK  status: ('A' for Active; 'I' for Inactive)
REMARK    1  A    between atoms: N_3  and  C_15 
REMARK    2  A    between atoms: C_5  and  C_7 
ROOT
HETATM    1  S   UNL     1      24.327  12.270 -18.262  1.00  0.00    -0.069 SA
HETATM    2  N   UNL     1      26.797  11.716 -18.151  1.00  0.00    -0.344 N 
HETATM    3  C   UNL     1      26.315  11.714 -16.866  1.00  0.00     0.052 A 
HETATM    4  C   UNL     1      25.799  11.984 -19.061  1.00  0.00     0.087 A 
HETATM    5  C   UNL     1      24.965  12.002 -16.745  1.00  0.00     0.034 A 
HETATM    6  C   UNL     1      27.069  11.467 -15.705  1.00  0.00     0.031 A 
HETATM    7  C   UNL     1      24.312  12.052 -15.517  1.00  0.00     0.028 A 
HETATM    8  C   UNL     1      28.226  11.518 -18.429  1.00  0.00     0.157 C 
HETATM    9  C   UNL     1      25.057  11.799 -14.351  1.00  0.00    -0.061 A 
HETATM   10  C   UNL     1      26.435  11.508 -14.453  1.00  0.00     0.009 A 
HETATM   11  C   UNL     1      24.405  11.838 -13.002  1.00  0.00     0.048 C 
ENDROOT
BRANCH   4  12
HETATM   12  C   UNL     1      25.886  12.007 -20.557  1.00  0.00    -0.002 A 
HETATM   13  C   UNL     1      25.123  11.161 -21.381  1.00  0.00     0.016 A 
HETATM   14  C   UNL     1      25.219  11.232 -22.774  1.00  0.00     0.030 A 
HETATM   15  C   UNL     1      26.076  12.159 -23.403  1.00  0.00     0.029 A 
HETATM   16  C   UNL     1      26.823  13.022 -22.572  1.00  0.00     0.030 A 
HETATM   17  C   UNL     1      26.721  12.951 -21.181  1.00  0.00     0.016 A 
BRANCH  15  18
HETATM   18  N   UNL     1      26.177  12.233 -24.842  1.00  0.00    -0.390 N 
HETATM   19  C   UNL     1      27.253  12.985 -25.473  1.00  0.00     0.149 C 
HETATM   20  C   UNL     1      25.204  11.557 -25.689  1.00  0.00     0.149 C 
ENDBRANCH  15  18
ENDBRANCH   4  12
TORSDOF 2
ENDMDL
MODEL 11
REMARK VINA RESULT:      -7.3      1.957      7.980
REMARK  2 active torsions:
REMARK  status: ('A' for Active; 'I' for Inactive)
REMARK    1  A    between atoms: N_3  and  C_15 
REMARK    2  A    between atoms: C_5  and  C_7 
ROOT
HETATM    1  S   UNL     1      27.224  11.632 -16.065  1.00  0.00    -0.069 SA
HETATM    2  N   UNL     1      24.759  12.134 -15.767  1.00  0.00    -0.344 N 
HETATM    3  C   UNL     1      24.983  11.948 -17.108  1.00  0.00     0.052 A 
HETATM    4  C   UNL     1      25.913  11.962 -15.036  1.00  0.00     0.087 A 
HETATM    5  C   UNL     1      26.295  11.661 -17.449  1.00  0.00     0.034 A 
HETATM    6  C   UNL     1      24.016  12.040 -18.124  1.00  0.00     0.031 A 
HETATM    7  C   UNL     1      26.704  11.452 -18.763  1.00  0.00     0.028 A 
HETATM    8  C   UNL     1      23.437  12.532 -15.263  1.00  0.00     0.157 C 
HETATM    9  C   UNL     1      25.740  11.537 -19.786  1.00  0.00    -0.061 A 
HETATM   10  C   UNL     1      24.400  11.832 -19.458  1.00  0.00     0.009 A 
HETATM   11  C   UNL     1      26.124  11.320 -21.218  1.00  0.00     0.048 C 
ENDROOT
BRANCH   4  12
HETATM   12  C   UNL     1      26.087  12.005 -13.549  1.00  0.00    -0.002 A 
HETATM   13  C   UNL     1      26.885  12.963 -12.898  1.00  0.00     0.016 A 
HETATM   14  C   UNL     1      27.002  12.980 -11.505  1.00  0.00     0.030 A 
HETATM   15  C   UNL     1      26.318  12.043 -10.702  1.00  0.00     0.029 A 
HETATM   16  C   UNL     1      25.502  11.097 -11.357  1.00  0.00     0.030 A 
HETATM   17  C   UNL     1      25.383  11.087 -12.749  1.00  0.00     0.016 A 
BRANCH  15  18
HETATM   18  N   UNL     1      26.439  12.059  -9.263  1.00  0.00    -0.390 N 
HETATM   19  C   UNL     1      25.264  12.238  -8.421  1.00  0.00     0.149 C 
HETATM   20  C   UNL     1      27.739  11.898  -8.625  1.00  0.00     0.149 C 
ENDBRANCH  15  18
ENDBRANCH   4  12
TORSDOF 2
ENDMDL
MODEL 12
REMARK VINA RESULT:      -7.3      1.693      7.811
REMARK  2 active torsions:
REMARK  status: ('A' for Active; 'I' for Inactive)
REMARK    1  A    between atoms: N_3  and  C_15 
REMARK    2  A    between atoms: C_5  and  C_7 
ROOT
HETATM    1  S   UNL     1      24.685  11.154 -16.930  1.00  0.00    -0.069 SA
HETATM    2  N   UNL     1      26.645  12.739 -16.666  1.00  0.00    -0.344 N 
HETATM    3  C   UNL     1      26.435  12.562 -18.010  1.00  0.00     0.052 A 
HETATM    4  C   UNL     1      25.726  12.037 -15.918  1.00  0.00     0.087 A 
HETATM    5  C   UNL     1      25.388  11.714 -18.334  1.00  0.00     0.034 A 
HETATM    6  C   UNL     1      27.188  13.145 -19.044  1.00  0.00     0.031 A 
HETATM    7  C   UNL     1      25.039  11.415 -19.648  1.00  0.00     0.028 A 
HETATM    8  C   UNL     1      27.774  13.537 -16.169  1.00  0.00     0.157 C 
HETATM    9  C   UNL     1      25.785  11.999 -20.689  1.00  0.00    -0.061 A 
HETATM   10  C   UNL     1      26.857  12.862 -20.379  1.00  0.00     0.009 A 
HETATM   11  C   UNL     1      25.453  11.713 -22.122  1.00  0.00     0.048 C 
ENDROOT
BRANCH   4  12
HETATM   12  C   UNL     1      25.561  12.015 -14.428  1.00  0.00    -0.002 A 
HETATM   13  C   UNL     1      24.354  12.348 -13.787  1.00  0.00     0.016 A 
HETATM   14  C   UNL     1      24.237  12.293 -12.395  1.00  0.00     0.030 A 
HETATM   15  C   UNL     1      25.320  11.893 -11.585  1.00  0.00     0.029 A 
HETATM   16  C   UNL     1      26.522  11.538 -12.233  1.00  0.00     0.030 A 
HETATM   17  C   UNL     1      26.634  11.590 -13.625  1.00  0.00     0.016 A 
BRANCH  15  18
HETATM   18  N   UNL     1      25.201  11.837 -10.147  1.00  0.00    -0.390 N 
HETATM   19  C   UNL     1      26.369  11.584  -9.314  1.00  0.00     0.149 C 
HETATM   20  C   UNL     1      23.909  12.030  -9.501  1.00  0.00     0.149 C 
ENDBRANCH  15  18
ENDBRANCH   4  12
TORSDOF 2
ENDMDL
MODEL 13
REMARK VINA RESULT:      -7.3      8.160      9.045
REMARK  2 active torsions:
REMARK  status: ('A' for Active; 'I' for Inactive)
REMARK    1  A    between atoms: N_3  and  C_15 
REMARK    2  A    between atoms: C_5  and  C_7 
ROOT
HETATM    1  S   UNL     1      31.103   6.102 -13.744  1.00  0.00    -0.069 SA
HETATM    2  N   UNL     1      33.609   6.404 -13.971  1.00  0.00    -0.344 N 
HETATM    3  C   UNL     1      33.325   6.302 -12.633  1.00  0.00     0.052 A 
HETATM    4  C   UNL     1      32.471   6.283 -14.737  1.00  0.00     0.087 A 
HETATM    5  C   UNL     1      31.984   6.131 -12.329  1.00  0.00     0.034 A 
HETATM    6  C   UNL     1      34.260   6.372 -11.586  1.00  0.00     0.031 A 
HETATM    7  C   UNL     1      31.515   6.019 -11.023  1.00  0.00     0.028 A 
HETATM    8  C   UNL     1      34.974   6.677 -14.442  1.00  0.00     0.157 C 
HETATM    9  C   UNL     1      32.446   6.082  -9.970  1.00  0.00    -0.061 A 
HETATM   10  C   UNL     1      33.816   6.259 -10.259  1.00  0.00     0.009 A 
HETATM   11  C   UNL     1      31.998   5.965  -8.544  1.00  0.00     0.048 C 
ENDROOT
BRANCH   4  12
HETATM   12  C   UNL     1      32.351   6.264 -16.230  1.00  0.00    -0.002 A 
HETATM   13  C   UNL     1      33.466   6.235 -17.087  1.00  0.00     0.016 A 
HETATM   14  C   UNL     1      33.309   6.195 -18.476  1.00  0.00     0.030 A 
HETATM   15  C   UNL     1      32.029   6.174 -19.067  1.00  0.00     0.029 A 
HETATM   16  C   UNL     1      30.913   6.182 -18.204  1.00  0.00     0.030 A 
HETATM   17  C   UNL     1      31.074   6.216 -16.816  1.00  0.00     0.016 A 
BRANCH  15  18
HETATM   18  N   UNL     1      31.865   6.135 -20.502  1.00  0.00    -0.390 N 
HETATM   19  C   UNL     1      32.826   5.428 -21.339  1.00  0.00     0.149 C 
HETATM   20  C   UNL     1      30.738   6.801 -21.139  1.00  0.00     0.149 C 
ENDBRANCH  15  18
ENDBRANCH   4  12
TORSDOF 2
ENDMDL
MODEL 14
REMARK VINA RESULT:      -7.2      8.290      9.637
REMARK  2 active torsions:
REMARK  status: ('A' for Active; 'I' for Inactive)
REMARK    1  A    between atoms: N_3  and  C_15 
REMARK    2  A    between atoms: C_5  and  C_7 
ROOT
HETATM    1  S   UNL     1      34.085   6.257 -12.219  1.00  0.00    -0.069 SA
HETATM    2  N   UNL     1      31.568   6.010 -12.067  1.00  0.00    -0.344 N 
HETATM    3  C   UNL     1      32.050   6.122 -10.787  1.00  0.00     0.052 A 
HETATM    4  C   UNL     1      32.582   6.096 -12.995  1.00  0.00     0.087 A 
HETATM    5  C   UNL     1      33.425   6.266 -10.688  1.00  0.00     0.034 A 
HETATM    6  C   UNL     1      31.279   6.085  -9.612  1.00  0.00     0.031 A 
HETATM    7  C   UNL     1      34.085   6.383  -9.468  1.00  0.00     0.028 A 
HETATM    8  C   UNL     1      30.143   5.762 -12.325  1.00  0.00     0.157 C 
HETATM    9  C   UNL     1      33.320   6.354  -8.288  1.00  0.00    -0.061 A 
HETATM   10  C   UNL     1      31.919   6.204  -8.367  1.00  0.00     0.009 A 
HETATM   11  C   UNL     1      33.978   6.478  -6.946  1.00  0.00     0.048 C 
ENDROOT
BRANCH   4  12
HETATM   12  C   UNL     1      32.478   6.094 -14.489  1.00  0.00    -0.002 A 
HETATM   13  C   UNL     1      31.249   6.151 -15.171  1.00  0.00     0.016 A 
HETATM   14  C   UNL     1      31.199   6.170 -16.568  1.00  0.00     0.030 A 
HETATM   15  C   UNL     1      32.377   6.141 -17.344  1.00  0.00     0.029 A 
HETATM   16  C   UNL     1      33.608   6.106 -16.655  1.00  0.00     0.030 A 
HETATM   17  C   UNL     1      33.655   6.093 -15.259  1.00  0.00     0.016 A 
BRANCH  15  18
HETATM   18  N   UNL     1      32.326   6.159 -18.787  1.00  0.00    -0.390 N 
HETATM   19  C   UNL     1      33.551   6.240 -19.571  1.00  0.00     0.149 C 
HETATM   20  C   UNL     1      31.050   6.098 -19.486  1.00  0.00     0.149 C 
ENDBRANCH  15  18
ENDBRANCH   4  12
TORSDOF 2
ENDMDL
MODEL 15
REMARK VINA RESULT:      -7.2      8.536     11.913
REMARK  2 active torsions:
REMARK  status: ('A' for Active; 'I' for Inactive)
REMARK    1  A    between atoms: N_3  and  C_15 
REMARK    2  A    between atoms: C_5  and  C_7 
ROOT
HETATM    1  S   UNL     1      31.108   5.891 -15.593  1.00  0.00    -0.069 SA
HETATM    2  N   UNL     1      33.601   6.316 -15.434  1.00  0.00    -0.344 N 
HETATM    3  C   UNL     1      33.265   6.328 -16.764  1.00  0.00     0.052 A 
HETATM    4  C   UNL     1      32.497   6.110 -14.638  1.00  0.00     0.087 A 
HETATM    5  C   UNL     1      31.923   6.109 -17.031  1.00  0.00     0.034 A 
HETATM    6  C   UNL     1      34.153   6.523 -17.836  1.00  0.00     0.031 A 
HETATM    7  C   UNL     1      31.407   6.079 -18.324  1.00  0.00     0.028 A 
HETATM    8  C   UNL     1      35.000   6.443 -15.001  1.00  0.00     0.157 C 
HETATM    9  C   UNL     1      32.289   6.280 -19.402  1.00  0.00    -0.061 A 
HETATM   10  C   UNL     1      33.660   6.500 -19.150  1.00  0.00     0.009 A 
HETATM   11  C   UNL     1      31.788   6.259 -20.815  1.00  0.00     0.048 C 
ENDROOT
BRANCH   4  12
HETATM   12  C   UNL     1      32.417   6.099 -13.142  1.00  0.00    -0.002 A 
HETATM   13  C   UNL     1      33.554   6.133 -12.314  1.00  0.00     0.016 A 
HETATM   14  C   UNL     1      33.433   6.144 -10.921  1.00  0.00     0.030 A 
HETATM   15  C   UNL     1      32.168   6.131 -10.296  1.00  0.00     0.029 A 
HETATM   16  C   UNL     1      31.030   6.119 -11.130  1.00  0.00     0.030 A 
HETATM   17  C   UNL     1      31.155   6.113 -12.522  1.00  0.00     0.016 A 
BRANCH  15  18
HETATM   18  N   UNL     1      32.042   6.141  -8.858  1.00  0.00    -0.390 N 
HETATM   19  C   UNL     1      30.728   6.147  -8.228  1.00  0.00     0.149 C 
HETATM   20  C   UNL     1      33.226   6.146  -8.009  1.00  0.00     0.149 C 
ENDBRANCH  15  18
ENDBRANCH   4  12
TORSDOF 2
ENDMDL
MODEL 16
REMARK VINA RESULT:      -7.1      1.587      2.411
REMARK  2 active torsions:
REMARK  status: ('A' for Active; 'I' for Inactive)
REMARK    1  A    between atoms: N_3  and  C_15 
REMARK    2  A    between atoms: C_5  and  C_7 
ROOT
HETATM    1  S   UNL     1      27.509  11.581 -13.812  1.00  0.00    -0.069 SA
HETATM    2  N   UNL     1      25.004  11.965 -13.802  1.00  0.00    -0.344 N 
HETATM    3  C   UNL     1      25.416  11.893 -12.495  1.00  0.00     0.052 A 
HETATM    4  C   UNL     1      26.065  11.837 -14.670  1.00  0.00     0.087 A 
HETATM    5  C   UNL     1      26.775  11.683 -12.318  1.00  0.00     0.034 A 
HETATM    6  C   UNL     1      24.587  11.996 -11.364  1.00  0.00     0.031 A 
HETATM    7  C   UNL     1      27.364  11.575 -11.062  1.00  0.00     0.028 A 
HETATM    8  C   UNL     1      23.582  12.094 -14.146  1.00  0.00     0.157 C 
HETATM    9  C   UNL     1      26.542  11.684  -9.925  1.00  0.00    -0.061 A 
HETATM   10  C   UNL     1      25.155  11.893 -10.084  1.00  0.00     0.009 A 
HETATM   11  C   UNL     1      27.123  11.576  -8.547  1.00  0.00     0.048 C 
ENDROOT
BRANCH   4  12
HETATM   12  C   UNL     1      26.059  11.930 -16.166  1.00  0.00    -0.002 A 
HETATM   13  C   UNL     1      25.260  11.109 -16.981  1.00  0.00     0.016 A 
HETATM   14  C   UNL     1      25.269  11.245 -18.372  1.00  0.00     0.030 A 
HETATM   15  C   UNL     1      26.071  12.216 -19.008  1.00  0.00     0.029 A 
HETATM   16  C   UNL     1      26.854  13.053 -18.185  1.00  0.00     0.030 A 
HETATM   17  C   UNL     1      26.839  12.917 -16.794  1.00  0.00     0.016 A 
BRANCH  15  18
HETATM   18  N   UNL     1      26.082  12.357 -20.445  1.00  0.00    -0.390 N 
HETATM   19  C   UNL     1      24.965  11.875 -21.246  1.00  0.00     0.149 C 
HETATM   20  C   UNL     1      27.210  12.982 -21.121  1.00  0.00     0.149 C 
ENDBRANCH  15  18
ENDBRANCH   4  12
TORSDOF 2
ENDMDL
MODEL 17
REMARK VINA RESULT:      -7.1      1.758      8.134
REMARK  2 active torsions:
REMARK  status: ('A' for Active; 'I' for Inactive)
REMARK    1  A    between atoms: N_3  and  C_15 
REMARK    2  A    between atoms: C_5  and  C_7 
ROOT
HETATM    1  S   UNL     1      27.513  11.710 -19.068  1.00  0.00    -0.069 SA
HETATM    2  N   UNL     1      24.989  11.757 -19.288  1.00  0.00    -0.344 N 
HETATM    3  C   UNL     1      25.513  11.676 -20.554  1.00  0.00     0.052 A 
HETATM    4  C   UNL     1      25.981  11.757 -18.333  1.00  0.00     0.087 A 
HETATM    5  C   UNL     1      26.897  11.641 -20.615  1.00  0.00     0.034 A 
HETATM    6  C   UNL     1      24.774  11.645 -21.750  1.00  0.00     0.031 A 
HETATM    7  C   UNL     1      27.597  11.568 -21.816  1.00  0.00     0.028 A 
HETATM    8  C   UNL     1      23.542  11.893 -19.070  1.00  0.00     0.157 C 
HETATM    9  C   UNL     1      26.864  11.530 -23.017  1.00  0.00    -0.061 A 
HETATM   10  C   UNL     1      25.454  11.570 -22.976  1.00  0.00     0.009 A 
HETATM   11  C   UNL     1      27.565  11.451 -24.339  1.00  0.00     0.048 C 
ENDROOT
BRANCH   4  12
HETATM   12  C   UNL     1      25.837  11.759 -16.842  1.00  0.00    -0.002 A 
HETATM   13  C   UNL     1      24.626  12.054 -16.190  1.00  0.00     0.016 A 
HETATM   14  C   UNL     1      24.530  12.023 -14.796  1.00  0.00     0.030 A 
HETATM   15  C   UNL     1      25.640  11.686 -13.993  1.00  0.00     0.029 A 
HETATM   16  C   UNL     1      26.847  11.369 -14.652  1.00  0.00     0.030 A 
HETATM   17  C   UNL     1      26.938  11.397 -16.046  1.00  0.00     0.016 A 
BRANCH  15  18
HETATM   18  N   UNL     1      25.542  11.655 -12.553  1.00  0.00    -0.390 N 
HETATM   19  C   UNL     1      24.386  12.227 -11.875  1.00  0.00     0.149 C 
HETATM   20  C   UNL     1      26.597  11.052 -11.750  1.00  0.00     0.149 C 
ENDBRANCH  15  18
ENDBRANCH   4  12
TORSDOF 2
ENDMDL
MODEL 18
REMARK VINA RESULT:      -7.1      2.345      8.490
REMARK  2 active torsions:
REMARK  status: ('A' for Active; 'I' for Inactive)
REMARK    1  A    between atoms: N_3  and  C_15 
REMARK    2  A    between atoms: C_5  and  C_7 
ROOT
HETATM    1  S   UNL     1      27.535  11.680 -14.238  1.00  0.00    -0.069 SA
HETATM    2  N   UNL     1      25.011  11.790 -14.432  1.00  0.00    -0.344 N 
HETATM    3  C   UNL     1      25.519  11.704 -15.704  1.00  0.00     0.052 A 
HETATM    4  C   UNL     1      26.012  11.760 -13.488  1.00  0.00     0.087 A 
HETATM    5  C   UNL     1      26.901  11.635 -15.780  1.00  0.00     0.034 A 
HETATM    6  C   UNL     1      24.768  11.697 -16.892  1.00  0.00     0.031 A 
HETATM    7  C   UNL     1      27.587  11.552 -16.988  1.00  0.00     0.028 A 
HETATM    8  C   UNL     1      23.570  11.960 -14.198  1.00  0.00     0.157 C 
HETATM    9  C   UNL     1      26.841  11.539 -18.182  1.00  0.00    -0.061 A 
HETATM   10  C   UNL     1      25.433  11.612 -18.125  1.00  0.00     0.009 A 
HETATM   11  C   UNL     1      27.527  11.450 -19.512  1.00  0.00     0.048 C 
ENDROOT
BRANCH   4  12
HETATM   12  C   UNL     1      25.883  11.758 -11.995  1.00  0.00    -0.002 A 
HETATM   13  C   UNL     1      24.677  12.040 -11.330  1.00  0.00     0.016 A 
HETATM   14  C   UNL     1      24.595  12.005  -9.935  1.00  0.00     0.030 A 
HETATM   15  C   UNL     1      25.717  11.676  -9.144  1.00  0.00     0.029 A 
HETATM   16  C   UNL     1      26.920  11.372  -9.816  1.00  0.00     0.030 A 
HETATM   17  C   UNL     1      26.996  11.404 -11.211  1.00  0.00     0.016 A 
BRANCH  15  18
HETATM   18  N   UNL     1      25.634  11.640  -7.703  1.00  0.00    -0.390 N 
HETATM   19  C   UNL     1      26.713  11.062  -6.913  1.00  0.00     0.149 C 
HETATM   20  C   UNL     1      24.471  12.180  -7.012  1.00  0.00     0.149 C 
ENDBRANCH  15  18
ENDBRANCH   4  12
TORSDOF 2
ENDMDL
MODEL 19
REMARK VINA RESULT:      -7.1      3.597      9.675
REMARK  2 active torsions:
REMARK  status: ('A' for Active; 'I' for Inactive)
REMARK    1  A    between atoms: N_3  and  C_15 
REMARK    2  A    between atoms: C_5  and  C_7 
ROOT
HETATM    1  S   UNL     1      24.287  12.256 -11.341  1.00  0.00    -0.069 SA
HETATM    2  N   UNL     1      26.731  11.595 -11.428  1.00  0.00    -0.344 N 
HETATM    3  C   UNL     1      26.282  11.685 -12.721  1.00  0.00     0.052 A 
HETATM    4  C   UNL     1      25.740  11.914 -10.528  1.00  0.00     0.087 A 
HETATM    5  C   UNL     1      24.949  12.042 -12.856  1.00  0.00     0.034 A 
HETATM    6  C   UNL     1      27.043  11.436 -13.877  1.00  0.00     0.031 A 
HETATM    7  C   UNL     1      24.324  12.171 -14.093  1.00  0.00     0.028 A 
HETATM    8  C   UNL     1      28.096  11.141 -11.126  1.00  0.00     0.157 C 
HETATM    9  C   UNL     1      25.082  11.929 -15.254  1.00  0.00    -0.061 A 
HETATM   10  C   UNL     1      26.439  11.562 -15.138  1.00  0.00     0.009 A 
HETATM   11  C   UNL     1      24.461  12.055 -16.612  1.00  0.00     0.048 C 
ENDROOT
BRANCH   4  12
HETATM   12  C   UNL     1      25.833  12.008  -9.036  1.00  0.00    -0.002 A 
HETATM   13  C   UNL     1      26.715  12.884  -8.378  1.00  0.00     0.016 A 
HETATM   14  C   UNL     1      26.754  12.956  -6.982  1.00  0.00     0.030 A 
HETATM   15  C   UNL     1      25.904  12.162  -6.184  1.00  0.00     0.029 A 
HETATM   16  C   UNL     1      25.005  11.301  -6.848  1.00  0.00     0.030 A 
HETATM   17  C   UNL     1      24.966  11.235  -8.243  1.00  0.00     0.016 A 
BRANCH  15  18
HETATM   18  N   UNL     1      25.944  12.235  -4.742  1.00  0.00    -0.390 N 
HETATM   19  C   UNL     1      24.778  11.868  -3.949  1.00  0.00     0.149 C 
HETATM   20  C   UNL     1      27.149  12.677  -4.054  1.00  0.00     0.149 C 
ENDBRANCH  15  18
ENDBRANCH   4  12
TORSDOF 2
ENDMDL
