MODEL 1
REMARK VINA RESULT:      -5.9      0.000      0.000
REMARK  2 active torsions:
REMARK  status: ('A' for Active; 'I' for Inactive)
REMARK    1  A    between atoms: N_3  and  C_15 
REMARK    2  A    between atoms: C_5  and  C_7 
ROOT
HETATM    1  S   UNL     1       9.412 -11.746 -14.874  1.00  0.00    -0.069 SA
HETATM    2  N   UNL     1       8.350 -14.037 -14.657  1.00  0.00    -0.344 N 
HETATM    3  C   UNL     1       8.396 -13.728 -15.993  1.00  0.00     0.052 A 
HETATM    4  C   UNL     1       8.908 -13.038 -13.891  1.00  0.00     0.087 A 
HETATM    5  C   UNL     1       8.955 -12.496 -16.292  1.00  0.00     0.034 A 
HETATM    6  C   UNL     1       7.921 -14.536 -17.041  1.00  0.00     0.031 A 
HETATM    7  C   UNL     1       9.074 -12.017 -17.594  1.00  0.00     0.028 A 
HETATM    8  C   UNL     1       7.705 -15.268 -14.182  1.00  0.00     0.157 C 
HETATM    9  C   UNL     1       8.606 -12.823 -18.648  1.00  0.00    -0.061 A 
HETATM   10  C   UNL     1       8.031 -14.079 -18.364  1.00  0.00     0.009 A 
HETATM   11  C   UNL     1       8.710 -12.358 -20.070  1.00  0.00     0.048 C 
ENDROOT
BRANCH   4  12
HETATM   12  C   UNL     1       9.120 -13.011 -12.408  1.00  0.00    -0.002 A 
HETATM   13  C   UNL     1       8.184 -12.468 -11.510  1.00  0.00     0.016 A 
HETATM   14  C   UNL     1       8.412 -12.484 -10.131  1.00  0.00     0.030 A 
HETATM   15  C   UNL     1       9.584 -13.052  -9.590  1.00  0.00     0.029 A 
HETATM   16  C   UNL     1      10.511 -13.616 -10.492  1.00  0.00     0.030 A 
HETATM   17  C   UNL     1      10.277 -13.602 -11.870  1.00  0.00     0.016 A 
BRANCH  15  18
HETATM   18  N   UNL     1       9.822 -13.068  -8.165  1.00  0.00    -0.390 N 
HETATM   19  C   UNL     1      10.875 -13.900  -7.598  1.00  0.00     0.149 C 
HETATM   20  C   UNL     1       9.012 -12.255  -7.269  1.00  0.00     0.149 C 
ENDBRANCH  15  18
ENDBRANCH   4  12
TORSDOF 2
ENDMDL
MODEL 2
REMARK VINA RESULT:      -5.8      1.665      7.868
REMARK  2 active torsions:
REMARK  status: ('A' for Active; 'I' for Inactive)
REMARK    1  A    between atoms: N_3  and  C_15 
REMARK    2  A    between atoms: C_5  and  C_7 
ROOT
HETATM    1  S   UNL     1       8.069 -12.428 -11.063  1.00  0.00    -0.069 SA
HETATM    2  N   UNL     1      10.340 -13.509 -11.372  1.00  0.00    -0.344 N 
HETATM    3  C   UNL     1      10.095 -13.442 -10.024  1.00  0.00     0.052 A 
HETATM    4  C   UNL     1       9.285 -13.005 -12.100  1.00  0.00     0.087 A 
HETATM    5  C   UNL     1       8.881 -12.871  -9.676  1.00  0.00     0.034 A 
HETATM    6  C   UNL     1      10.961 -13.880  -9.007  1.00  0.00     0.031 A 
HETATM    7  C   UNL     1       8.472 -12.715  -8.354  1.00  0.00     0.028 A 
HETATM    8  C   UNL     1      11.622 -14.005 -11.890  1.00  0.00     0.157 C 
HETATM    9  C   UNL     1       9.331 -13.157  -7.331  1.00  0.00    -0.061 A 
HETATM   10  C   UNL     1      10.574 -13.737  -7.665  1.00  0.00     0.009 A 
HETATM   11  C   UNL     1       8.942 -13.015  -5.890  1.00  0.00     0.048 C 
ENDROOT
BRANCH   4  12
HETATM   12  C   UNL     1       9.120 -12.959 -13.588  1.00  0.00    -0.002 A 
HETATM   13  C   UNL     1       9.364 -11.802 -14.350  1.00  0.00     0.016 A 
HETATM   14  C   UNL     1       9.219 -11.809 -15.741  1.00  0.00     0.030 A 
HETATM   15  C   UNL     1       8.832 -12.978 -16.430  1.00  0.00     0.029 A 
HETATM   16  C   UNL     1       8.609 -14.142 -15.664  1.00  0.00     0.030 A 
HETATM   17  C   UNL     1       8.760 -14.132 -14.276  1.00  0.00     0.016 A 
BRANCH  15  18
HETATM   18  N   UNL     1       8.680 -12.986 -17.867  1.00  0.00    -0.390 N 
HETATM   19  C   UNL     1       9.213 -11.898 -18.675  1.00  0.00     0.149 C 
HETATM   20  C   UNL     1       7.991 -14.082 -18.534  1.00  0.00     0.149 C 
ENDBRANCH  15  18
ENDBRANCH   4  12
TORSDOF 2
ENDMDL
MODEL 3
REMARK VINA RESULT:      -5.7      1.967      7.924
REMARK  2 active torsions:
REMARK  status: ('A' for Active; 'I' for Inactive)
REMARK    1  A    between atoms: N_3  and  C_15 
REMARK    2  A    between atoms: C_5  and  C_7 
ROOT
HETATM    1  S   UNL     1      11.368 -13.998 -10.865  1.00  0.00    -0.069 SA
HETATM    2  N   UNL     1       9.028 -13.030 -10.772  1.00  0.00    -0.344 N 
HETATM    3  C   UNL     1       9.462 -13.186  -9.480  1.00  0.00     0.052 A 
HETATM    4  C   UNL     1       9.994 -13.414 -11.676  1.00  0.00     0.087 A 
HETATM    5  C   UNL     1      10.737 -13.711  -9.348  1.00  0.00     0.034 A 
HETATM    6  C   UNL     1       8.725 -12.879  -8.322  1.00  0.00     0.031 A 
HETATM    7  C   UNL     1      11.333 -13.944  -8.112  1.00  0.00     0.028 A 
HETATM    8  C   UNL     1       7.664 -12.570 -11.068  1.00  0.00     0.157 C 
HETATM    9  C   UNL     1      10.605 -13.633  -6.948  1.00  0.00    -0.061 A 
HETATM   10  C   UNL     1       9.302 -13.102  -7.062  1.00  0.00     0.009 A 
HETATM   11  C   UNL     1      11.197 -13.863  -5.591  1.00  0.00     0.048 C 
ENDROOT
BRANCH   4  12
HETATM   12  C   UNL     1       9.952 -13.335 -13.171  1.00  0.00    -0.002 A 
HETATM   13  C   UNL     1       9.559 -12.178 -13.867  1.00  0.00     0.016 A 
HETATM   14  C   UNL     1       9.556 -12.141 -15.264  1.00  0.00     0.030 A 
HETATM   15  C   UNL     1       9.956 -13.258 -16.027  1.00  0.00     0.029 A 
HETATM   16  C   UNL     1      10.371 -14.410 -15.325  1.00  0.00     0.030 A 
HETATM   17  C   UNL     1      10.377 -14.442 -13.929  1.00  0.00     0.016 A 
BRANCH  15  18
HETATM   18  N   UNL     1       9.953 -13.222 -17.471  1.00  0.00    -0.390 N 
HETATM   19  C   UNL     1      10.986 -13.910 -18.233  1.00  0.00     0.149 C 
HETATM   20  C   UNL     1       8.916 -12.496 -18.192  1.00  0.00     0.149 C 
ENDBRANCH  15  18
ENDBRANCH   4  12
TORSDOF 2
ENDMDL
MODEL 4
REMARK VINA RESULT:      -5.6      2.636      4.871
REMARK  2 active torsions:
REMARK  status: ('A' for Active; 'I' for Inactive)
REMARK    1  A    between atoms: N_3  and  C_15 
REMARK    2  A    between atoms: C_5  and  C_7 
ROOT
HETATM    1  S   UNL     1       9.416 -11.728  -9.999  1.00  0.00    -0.069 SA
HETATM    2  N   UNL     1       8.368 -14.026  -9.788  1.00  0.00    -0.344 N 
HETATM    3  C   UNL     1       8.413 -13.714 -11.124  1.00  0.00     0.052 A 
HETATM    4  C   UNL     1       8.920 -13.025  -9.020  1.00  0.00     0.087 A 
HETATM    5  C   UNL     1       8.964 -12.477 -11.419  1.00  0.00     0.034 A 
HETATM    6  C   UNL     1       7.943 -14.522 -12.174  1.00  0.00     0.031 A 
HETATM    7  C   UNL     1       9.081 -11.994 -12.720  1.00  0.00     0.028 A 
HETATM    8  C   UNL     1       7.731 -15.262  -9.316  1.00  0.00     0.157 C 
HETATM    9  C   UNL     1       8.618 -12.800 -13.777  1.00  0.00    -0.061 A 
HETATM   10  C   UNL     1       8.050 -14.061 -13.496  1.00  0.00     0.009 A 
HETATM   11  C   UNL     1       8.720 -12.332 -15.197  1.00  0.00     0.048 C 
ENDROOT
BRANCH   4  12
HETATM   12  C   UNL     1       9.131 -13.001  -7.537  1.00  0.00    -0.002 A 
HETATM   13  C   UNL     1       8.206 -12.436  -6.641  1.00  0.00     0.016 A 
HETATM   14  C   UNL     1       8.433 -12.454  -5.261  1.00  0.00     0.030 A 
HETATM   15  C   UNL     1       9.592 -13.048  -4.718  1.00  0.00     0.029 A 
HETATM   16  C   UNL     1      10.507 -13.634  -5.619  1.00  0.00     0.030 A 
HETATM   17  C   UNL     1      10.274 -13.617  -6.996  1.00  0.00     0.016 A 
BRANCH  15  18
HETATM   18  N   UNL     1       9.828 -13.067  -3.293  1.00  0.00    -0.390 N 
HETATM   19  C   UNL     1      10.893 -13.885  -2.729  1.00  0.00     0.149 C 
HETATM   20  C   UNL     1       9.006 -12.269  -2.394  1.00  0.00     0.149 C 
ENDBRANCH  15  18
ENDBRANCH   4  12
TORSDOF 2
ENDMDL
MODEL 5
REMARK VINA RESULT:      -5.6      1.655      7.889
REMARK  2 active torsions:
REMARK  status: ('A' for Active; 'I' for Inactive)
REMARK    1  A    between atoms: N_3  and  C_15 
REMARK    2  A    between atoms: C_5  and  C_7 
ROOT
HETATM    1  S   UNL     1       8.046 -12.540 -11.059  1.00  0.00    -0.069 SA
HETATM    2  N   UNL     1      10.358 -13.542 -11.326  1.00  0.00    -0.344 N 
HETATM    3  C   UNL     1      10.108 -13.435  -9.981  1.00  0.00     0.052 A 
HETATM    4  C   UNL     1       9.286 -13.108 -12.073  1.00  0.00     0.087 A 
HETATM    5  C   UNL     1       8.872 -12.899  -9.656  1.00  0.00     0.034 A 
HETATM    6  C   UNL     1      10.989 -13.800  -8.949  1.00  0.00     0.031 A 
HETATM    7  C   UNL     1       8.455 -12.710  -8.341  1.00  0.00     0.028 A 
HETATM    8  C   UNL     1      11.660 -14.008 -11.824  1.00  0.00     0.157 C 
HETATM    9  C   UNL     1       9.329 -13.079  -7.302  1.00  0.00    -0.061 A 
HETATM   10  C   UNL     1      10.593 -13.622  -7.613  1.00  0.00     0.009 A 
HETATM   11  C   UNL     1       8.932 -12.898  -5.868  1.00  0.00     0.048 C 
ENDROOT
BRANCH   4  12
HETATM   12  C   UNL     1       9.122 -13.124 -13.562  1.00  0.00    -0.002 A 
HETATM   13  C   UNL     1       8.531 -14.196 -14.256  1.00  0.00     0.016 A 
HETATM   14  C   UNL     1       8.378 -14.160 -15.645  1.00  0.00     0.030 A 
HETATM   15  C   UNL     1       8.801 -13.045 -16.400  1.00  0.00     0.029 A 
HETATM   16  C   UNL     1       9.373 -11.963 -15.697  1.00  0.00     0.030 A 
HETATM   17  C   UNL     1       9.520 -12.001 -14.309  1.00  0.00     0.016 A 
BRANCH  15  18
HETATM   18  N   UNL     1       8.644 -13.008 -17.835  1.00  0.00    -0.390 N 
HETATM   19  C   UNL     1       9.159 -11.885 -18.608  1.00  0.00     0.149 C 
HETATM   20  C   UNL     1       7.967 -14.090 -18.536  1.00  0.00     0.149 C 
ENDBRANCH  15  18
ENDBRANCH   4  12
TORSDOF 2
ENDMDL
MODEL 6
REMARK VINA RESULT:      -5.6      2.154      7.882
REMARK  2 active torsions:
REMARK  status: ('A' for Active; 'I' for Inactive)
REMARK    1  A    between atoms: N_3  and  C_15 
REMARK    2  A    between atoms: C_5  and  C_7 
ROOT
HETATM    1  S   UNL     1       9.802 -12.058 -10.127  1.00  0.00    -0.069 SA
HETATM    2  N   UNL     1       8.520 -14.226 -10.401  1.00  0.00    -0.344 N 
HETATM    3  C   UNL     1       8.435 -13.860  -9.081  1.00  0.00     0.052 A 
HETATM    4  C   UNL     1       9.233 -13.304 -11.133  1.00  0.00     0.087 A 
HETATM    5  C   UNL     1       9.089 -12.683  -8.756  1.00  0.00     0.034 A 
HETATM    6  C   UNL     1       7.770 -14.576  -8.070  1.00  0.00     0.031 A 
HETATM    7  C   UNL     1       9.114 -12.167  -7.463  1.00  0.00     0.028 A 
HETATM    8  C   UNL     1       7.954 -15.496 -10.878  1.00  0.00     0.157 C 
HETATM    9  C   UNL     1       8.445 -12.874  -6.447  1.00  0.00    -0.061 A 
HETATM   10  C   UNL     1       7.777 -14.077  -6.758  1.00  0.00     0.009 A 
HETATM   11  C   UNL     1       8.438 -12.364  -5.037  1.00  0.00     0.048 C 
ENDROOT
BRANCH   4  12
HETATM   12  C   UNL     1       9.495 -13.288 -12.609  1.00  0.00    -0.002 A 
HETATM   13  C   UNL     1      10.705 -13.726 -13.176  1.00  0.00     0.016 A 
HETATM   14  C   UNL     1      10.898 -13.716 -14.561  1.00  0.00     0.030 A 
HETATM   15  C   UNL     1       9.886 -13.275 -15.438  1.00  0.00     0.029 A 
HETATM   16  C   UNL     1       8.665 -12.857 -14.866  1.00  0.00     0.030 A 
HETATM   17  C   UNL     1       8.474 -12.873 -13.482  1.00  0.00     0.016 A 
BRANCH  15  18
HETATM   18  N   UNL     1      10.085 -13.262 -16.868  1.00  0.00    -0.390 N 
HETATM   19  C   UNL     1      11.185 -14.004 -17.470  1.00  0.00     0.149 C 
HETATM   20  C   UNL     1       9.192 -12.507 -17.736  1.00  0.00     0.149 C 
ENDBRANCH  15  18
ENDBRANCH   4  12
TORSDOF 2
ENDMDL
MODEL 7
REMARK VINA RESULT:      -5.6      1.677      2.029
REMARK  2 active torsions:
REMARK  status: ('A' for Active; 'I' for Inactive)
REMARK    1  A    between atoms: N_3  and  C_15 
REMARK    2  A    between atoms: C_5  and  C_7 
ROOT
HETATM    1  S   UNL     1       8.228 -12.479 -15.566  1.00  0.00    -0.069 SA
HETATM    2  N   UNL     1      10.343 -13.839 -15.250  1.00  0.00    -0.344 N 
HETATM    3  C   UNL     1      10.241 -13.539 -16.585  1.00  0.00     0.052 A 
HETATM    4  C   UNL     1       9.304 -13.292 -14.531  1.00  0.00     0.087 A 
HETATM    5  C   UNL     1       9.128 -12.791 -16.935  1.00  0.00     0.034 A 
HETATM    6  C   UNL     1      11.142 -13.935 -17.589  1.00  0.00     0.031 A 
HETATM    7  C   UNL     1       8.860 -12.404 -18.245  1.00  0.00     0.028 A 
HETATM    8  C   UNL     1      11.420 -14.701 -14.744  1.00  0.00     0.157 C 
HETATM    9  C   UNL     1       9.760 -12.791 -19.254  1.00  0.00    -0.061 A 
HETATM   10  C   UNL     1      10.897 -13.557 -18.919  1.00  0.00     0.009 A 
HETATM   11  C   UNL     1       9.523 -12.402 -20.682  1.00  0.00     0.048 C 
ENDROOT
BRANCH   4  12
HETATM   12  C   UNL     1       9.081 -13.321 -13.050  1.00  0.00    -0.002 A 
HETATM   13  C   UNL     1       8.884 -14.512 -12.328  1.00  0.00     0.016 A 
HETATM   14  C   UNL     1       8.702 -14.495 -10.942  1.00  0.00     0.030 A 
HETATM   15  C   UNL     1       8.718 -13.285 -10.216  1.00  0.00     0.029 A 
HETATM   16  C   UNL     1       8.939 -12.095 -10.941  1.00  0.00     0.030 A 
HETATM   17  C   UNL     1       9.125 -12.116 -12.326  1.00  0.00     0.016 A 
BRANCH  15  18
HETATM   18  N   UNL     1       8.529 -13.266  -8.785  1.00  0.00    -0.390 N 
HETATM   19  C   UNL     1       7.825 -14.352  -8.115  1.00  0.00     0.149 C 
HETATM   20  C   UNL     1       9.037 -12.161  -7.984  1.00  0.00     0.149 C 
ENDBRANCH  15  18
ENDBRANCH   4  12
TORSDOF 2
ENDMDL
MODEL 8
REMARK VINA RESULT:      -5.5      1.726      2.008
REMARK  2 active torsions:
REMARK  status: ('A' for Active; 'I' for Inactive)
REMARK    1  A    between atoms: N_3  and  C_15 
REMARK    2  A    between atoms: C_5  and  C_7 
ROOT
HETATM    1  S   UNL     1       8.261 -12.573 -15.741  1.00  0.00    -0.069 SA
HETATM    2  N   UNL     1      10.465 -13.777 -15.410  1.00  0.00    -0.344 N 
HETATM    3  C   UNL     1      10.322 -13.541 -16.754  1.00  0.00     0.052 A 
HETATM    4  C   UNL     1       9.404 -13.269 -14.694  1.00  0.00     0.087 A 
HETATM    5  C   UNL     1       9.157 -12.883 -17.113  1.00  0.00     0.034 A 
HETATM    6  C   UNL     1      11.231 -13.920 -17.757  1.00  0.00     0.031 A 
HETATM    7  C   UNL     1       8.843 -12.570 -18.433  1.00  0.00     0.028 A 
HETATM    8  C   UNL     1      11.605 -14.544 -14.888  1.00  0.00     0.157 C 
HETATM    9  C   UNL     1       9.751 -12.940 -19.442  1.00  0.00    -0.061 A 
HETATM   10  C   UNL     1      10.941 -13.615 -19.097  1.00  0.00     0.009 A 
HETATM   11  C   UNL     1       9.466 -12.628 -20.880  1.00  0.00     0.048 C 
ENDROOT
BRANCH   4  12
HETATM   12  C   UNL     1       9.207 -13.250 -13.209  1.00  0.00    -0.002 A 
HETATM   13  C   UNL     1       9.127 -12.060 -12.463  1.00  0.00     0.016 A 
HETATM   14  C   UNL     1       8.921 -12.088 -11.081  1.00  0.00     0.030 A 
HETATM   15  C   UNL     1       8.775 -13.307 -10.386  1.00  0.00     0.029 A 
HETATM   16  C   UNL     1       8.833 -14.497 -11.142  1.00  0.00     0.030 A 
HETATM   17  C   UNL     1       9.035 -14.466 -12.524  1.00  0.00     0.016 A 
BRANCH  15  18
HETATM   18  N   UNL     1       8.562 -13.336  -8.958  1.00  0.00    -0.390 N 
HETATM   19  C   UNL     1       7.862 -14.452  -8.335  1.00  0.00     0.149 C 
HETATM   20  C   UNL     1       9.042 -12.251  -8.114  1.00  0.00     0.149 C 
ENDBRANCH  15  18
ENDBRANCH   4  12
TORSDOF 2
ENDMDL
MODEL 9
REMARK VINA RESULT:      -5.5      1.936      2.543
REMARK  2 active torsions:
REMARK  status: ('A' for Active; 'I' for Inactive)
REMARK    1  A    between atoms: N_3  and  C_15 
REMARK    2  A    between atoms: C_5  and  C_7 
ROOT
HETATM    1  S   UNL     1       9.061 -12.451 -13.627  1.00  0.00    -0.069 SA
HETATM    2  N   UNL     1      10.232 -14.594 -12.950  1.00  0.00    -0.344 N 
HETATM    3  C   UNL     1      10.364 -14.463 -14.310  1.00  0.00     0.052 A 
HETATM    4  C   UNL     1       9.548 -13.529 -12.407  1.00  0.00     0.087 A 
HETATM    5  C   UNL     1       9.775 -13.331 -14.850  1.00  0.00     0.034 A 
HETATM    6  C   UNL     1      11.017 -15.369 -15.164  1.00  0.00     0.031 A 
HETATM    7  C   UNL     1       9.804 -13.043 -16.212  1.00  0.00     0.028 A 
HETATM    8  C   UNL     1      10.727 -15.786 -12.248  1.00  0.00     0.157 C 
HETATM    9  C   UNL     1      10.460 -13.942 -17.073  1.00  0.00    -0.061 A 
HETATM   10  C   UNL     1      11.063 -15.102 -16.542  1.00  0.00     0.009 A 
HETATM   11  C   UNL     1      10.523 -13.681 -18.547  1.00  0.00     0.048 C 
ENDROOT
BRANCH   4  12
HETATM   12  C   UNL     1       9.254 -13.251 -10.965  1.00  0.00    -0.002 A 
HETATM   13  C   UNL     1       9.758 -12.128 -10.284  1.00  0.00     0.016 A 
HETATM   14  C   UNL     1       9.441 -11.895  -8.942  1.00  0.00     0.030 A 
HETATM   15  C   UNL     1       8.596 -12.769  -8.227  1.00  0.00     0.029 A 
HETATM   16  C   UNL     1       8.074 -13.882  -8.920  1.00  0.00     0.030 A 
HETATM   17  C   UNL     1       8.390 -14.110 -10.262  1.00  0.00     0.016 A 
BRANCH  15  18
HETATM   18  N   UNL     1       8.268 -12.530  -6.841  1.00  0.00    -0.390 N 
HETATM   19  C   UNL     1       7.334 -13.399  -6.139  1.00  0.00     0.149 C 
HETATM   20  C   UNL     1       8.863 -11.413  -6.120  1.00  0.00     0.149 C 
ENDBRANCH  15  18
ENDBRANCH   4  12
TORSDOF 2
ENDMDL
MODEL 10
REMARK VINA RESULT:      -5.5      1.972      8.051
REMARK  2 active torsions:
REMARK  status: ('A' for Active; 'I' for Inactive)
REMARK    1  A    between atoms: N_3  and  C_15 
REMARK    2  A    between atoms: C_5  and  C_7 
ROOT
HETATM    1  S   UNL     1      11.428 -14.056 -10.715  1.00  0.00    -0.069 SA
HETATM    2  N   UNL     1       9.126 -12.998 -10.670  1.00  0.00    -0.344 N 
HETATM    3  C   UNL     1       9.544 -13.131  -9.370  1.00  0.00     0.052 A 
HETATM    4  C   UNL     1      10.082 -13.445 -11.554  1.00  0.00     0.087 A 
HETATM    5  C   UNL     1      10.799 -13.699  -9.213  1.00  0.00     0.034 A 
HETATM    6  C   UNL     1       8.813 -12.761  -8.228  1.00  0.00     0.031 A 
HETATM    7  C   UNL     1      11.377 -13.917  -7.965  1.00  0.00     0.028 A 
HETATM    8  C   UNL     1       7.782 -12.496 -10.990  1.00  0.00     0.157 C 
HETATM    9  C   UNL     1      10.653 -13.544  -6.817  1.00  0.00    -0.061 A 
HETATM   10  C   UNL     1       9.372 -12.967  -6.957  1.00  0.00     0.009 A 
HETATM   11  C   UNL     1      11.227 -13.754  -5.449  1.00  0.00     0.048 C 
ENDROOT
BRANCH   4  12
HETATM   12  C   UNL     1      10.053 -13.411 -13.051  1.00  0.00    -0.002 A 
HETATM   13  C   UNL     1      10.443 -14.501 -13.850  1.00  0.00     0.016 A 
HETATM   14  C   UNL     1      10.380 -14.433 -15.245  1.00  0.00     0.030 A 
HETATM   15  C   UNL     1       9.913 -13.275 -15.901  1.00  0.00     0.029 A 
HETATM   16  C   UNL     1       9.501 -12.192 -15.096  1.00  0.00     0.030 A 
HETATM   17  C   UNL     1       9.562 -12.265 -13.702  1.00  0.00     0.016 A 
BRANCH  15  18
HETATM   18  N   UNL     1       9.848 -13.204 -17.342  1.00  0.00    -0.390 N 
HETATM   19  C   UNL     1       8.813 -12.417 -18.000  1.00  0.00     0.149 C 
HETATM   20  C   UNL     1      10.815 -13.917 -18.165  1.00  0.00     0.149 C 
ENDBRANCH  15  18
ENDBRANCH   4  12
TORSDOF 2
ENDMDL
MODEL 11
REMARK VINA RESULT:      -5.5      2.119      3.793
REMARK  2 active torsions:
REMARK  status: ('A' for Active; 'I' for Inactive)
REMARK    1  A    between atoms: N_3  and  C_15 
REMARK    2  A    between atoms: C_5  and  C_7 
ROOT
HETATM    1  S   UNL     1       8.061 -12.843 -11.619  1.00  0.00    -0.069 SA
HETATM    2  N   UNL     1      10.493 -13.502 -11.346  1.00  0.00    -0.344 N 
HETATM    3  C   UNL     1      10.255 -13.348 -12.688  1.00  0.00     0.052 A 
HETATM    4  C   UNL     1       9.367 -13.227 -10.602  1.00  0.00     0.087 A 
HETATM    5  C   UNL     1       8.959 -12.984 -13.017  1.00  0.00     0.034 A 
HETATM    6  C   UNL     1      11.194 -13.541 -13.717  1.00  0.00     0.031 A 
HETATM    7  C   UNL     1       8.540 -12.793 -14.330  1.00  0.00     0.028 A 
HETATM    8  C   UNL     1      11.794 -13.972 -10.851  1.00  0.00     0.157 C 
HETATM    9  C   UNL     1       9.475 -12.978 -15.365  1.00  0.00    -0.061 A 
HETATM   10  C   UNL     1      10.798 -13.353 -15.051  1.00  0.00     0.009 A 
HETATM   11  C   UNL     1       9.078 -12.785 -16.798  1.00  0.00     0.048 C 
ENDROOT
BRANCH   4  12
HETATM   12  C   UNL     1       9.220 -13.206  -9.111  1.00  0.00    -0.002 A 
HETATM   13  C   UNL     1       9.188 -12.016  -8.361  1.00  0.00     0.016 A 
HETATM   14  C   UNL     1       9.026 -12.041  -6.973  1.00  0.00     0.030 A 
HETATM   15  C   UNL     1       8.879 -13.259  -6.275  1.00  0.00     0.029 A 
HETATM   16  C   UNL     1       8.889 -14.449  -7.033  1.00  0.00     0.030 A 
HETATM   17  C   UNL     1       9.047 -14.419  -8.421  1.00  0.00     0.016 A 
BRANCH  15  18
HETATM   18  N   UNL     1       8.713 -13.286  -4.841  1.00  0.00    -0.390 N 
HETATM   19  C   UNL     1       8.066 -14.418  -4.190  1.00  0.00     0.149 C 
HETATM   20  C   UNL     1       9.188 -12.183  -4.017  1.00  0.00     0.149 C 
ENDBRANCH  15  18
ENDBRANCH   4  12
TORSDOF 2
ENDMDL
MODEL 12
REMARK VINA RESULT:      -5.5      1.926      2.281
REMARK  2 active torsions:
REMARK  status: ('A' for Active; 'I' for Inactive)
REMARK    1  A    between atoms: N_3  and  C_15 
REMARK    2  A    between atoms: C_5  and  C_7 
ROOT
HETATM    1  S   UNL     1      11.274 -13.885 -15.581  1.00  0.00    -0.069 SA
HETATM    2  N   UNL     1       8.939 -12.994 -16.002  1.00  0.00    -0.344 N 
HETATM    3  C   UNL     1       9.532 -13.191 -17.223  1.00  0.00     0.052 A 
HETATM    4  C   UNL     1       9.775 -13.363 -14.972  1.00  0.00     0.087 A 
HETATM    5  C   UNL     1      10.828 -13.681 -17.174  1.00  0.00     0.034 A 
HETATM    6  C   UNL     1       8.948 -12.925 -18.474  1.00  0.00     0.031 A 
HETATM    7  C   UNL     1      11.583 -13.931 -18.317  1.00  0.00     0.028 A 
HETATM    8  C   UNL     1       7.602 -12.395 -15.892  1.00  0.00     0.157 C 
HETATM    9  C   UNL     1      11.003 -13.673 -19.572  1.00  0.00    -0.061 A 
HETATM   10  C   UNL     1       9.686 -13.170 -19.643  1.00  0.00     0.009 A 
HETATM   11  C   UNL     1      11.769 -13.925 -20.836  1.00  0.00     0.048 C 
ENDROOT
BRANCH   4  12
HETATM   12  C   UNL     1       9.490 -13.376 -13.501  1.00  0.00    -0.002 A 
HETATM   13  C   UNL     1       9.188 -12.213 -12.770  1.00  0.00     0.016 A 
HETATM   14  C   UNL     1       8.906 -12.273 -11.402  1.00  0.00     0.030 A 
HETATM   15  C   UNL     1       8.906 -13.501 -10.708  1.00  0.00     0.029 A 
HETATM   16  C   UNL     1       9.188 -14.668 -11.449  1.00  0.00     0.030 A 
HETATM   17  C   UNL     1       9.464 -14.604 -12.817  1.00  0.00     0.016 A 
BRANCH  15  18
HETATM   18  N   UNL     1       8.616 -13.564  -9.294  1.00  0.00    -0.390 N 
HETATM   19  C   UNL     1       7.931 -14.718  -8.728  1.00  0.00     0.149 C 
HETATM   20  C   UNL     1       9.002 -12.475  -8.408  1.00  0.00     0.149 C 
ENDBRANCH  15  18
ENDBRANCH   4  12
TORSDOF 2
ENDMDL
MODEL 13
REMARK VINA RESULT:      -5.4      2.398      8.248
REMARK  2 active torsions:
REMARK  status: ('A' for Active; 'I' for Inactive)
REMARK    1  A    between atoms: N_3  and  C_15 
REMARK    2  A    between atoms: C_5  and  C_7 
ROOT
HETATM    1  S   UNL     1       8.342 -12.860 -14.910  1.00  0.00    -0.069 SA
HETATM    2  N   UNL     1      10.786 -13.525 -14.814  1.00  0.00    -0.344 N 
HETATM    3  C   UNL     1      10.319 -13.482 -13.524  1.00  0.00     0.052 A 
HETATM    4  C   UNL     1       9.791 -13.228 -15.719  1.00  0.00     0.087 A 
HETATM    5  C   UNL     1       8.985 -13.130 -13.395  1.00  0.00     0.034 A 
HETATM    6  C   UNL     1      11.073 -13.743 -12.367  1.00  0.00     0.031 A 
HETATM    7  C   UNL     1       8.348 -13.028 -12.162  1.00  0.00     0.028 A 
HETATM    8  C   UNL     1      12.201 -13.794 -15.103  1.00  0.00     0.157 C 
HETATM    9  C   UNL     1       9.094 -13.294 -10.999  1.00  0.00    -0.061 A 
HETATM   10  C   UNL     1      10.455 -13.650 -11.109  1.00  0.00     0.009 A 
HETATM   11  C   UNL     1       8.459 -13.201  -9.644  1.00  0.00     0.048 C 
ENDROOT
BRANCH   4  12
HETATM   12  C   UNL     1       9.863 -13.235 -17.215  1.00  0.00    -0.002 A 
HETATM   13  C   UNL     1      10.479 -14.266 -17.947  1.00  0.00     0.016 A 
HETATM   14  C   UNL     1      10.503 -14.244 -19.345  1.00  0.00     0.030 A 
HETATM   15  C   UNL     1       9.903 -13.194 -20.071  1.00  0.00     0.029 A 
HETATM   16  C   UNL     1       9.266 -12.174 -19.333  1.00  0.00     0.030 A 
HETATM   17  C   UNL     1       9.240 -12.201 -17.937  1.00  0.00     0.016 A 
BRANCH  15  18
HETATM   18  N   UNL     1       9.928 -13.170 -21.515  1.00  0.00    -0.390 N 
HETATM   19  C   UNL     1      10.858 -14.012 -22.255  1.00  0.00     0.149 C 
HETATM   20  C   UNL     1       9.025 -12.302 -22.259  1.00  0.00     0.149 C 
ENDBRANCH  15  18
ENDBRANCH   4  12
TORSDOF 2
ENDMDL
MODEL 14
REMARK VINA RESULT:      -5.4      2.204      8.091
REMARK  2 active torsions:
REMARK  status: ('A' for Active; 'I' for Inactive)
REMARK    1  A    between atoms: N_3  and  C_15 
REMARK    2  A    between atoms: C_5  and  C_7 
ROOT
HETATM    1  S   UNL     1       9.868 -12.041 -14.842  1.00  0.00    -0.069 SA
HETATM    2  N   UNL     1       8.443 -14.115 -15.133  1.00  0.00    -0.344 N 
HETATM    3  C   UNL     1       8.391 -13.761 -13.808  1.00  0.00     0.052 A 
HETATM    4  C   UNL     1       9.210 -13.233 -15.859  1.00  0.00     0.087 A 
HETATM    5  C   UNL     1       9.124 -12.634 -13.473  1.00  0.00     0.034 A 
HETATM    6  C   UNL     1       7.686 -14.444 -12.801  1.00  0.00     0.031 A 
HETATM    7  C   UNL     1       9.192 -12.138 -12.175  1.00  0.00     0.028 A 
HETATM    8  C   UNL     1       7.789 -15.338 -15.621  1.00  0.00     0.157 C 
HETATM    9  C   UNL     1       8.485 -12.812 -11.162  1.00  0.00    -0.061 A 
HETATM   10  C   UNL     1       7.736 -13.964 -11.483  1.00  0.00     0.009 A 
HETATM   11  C   UNL     1       8.521 -12.321  -9.746  1.00  0.00     0.048 C 
ENDROOT
BRANCH   4  12
HETATM   12  C   UNL     1       9.462 -13.216 -17.336  1.00  0.00    -0.002 A 
HETATM   13  C   UNL     1      10.666 -13.659 -17.913  1.00  0.00     0.016 A 
HETATM   14  C   UNL     1      10.851 -13.647 -19.298  1.00  0.00     0.030 A 
HETATM   15  C   UNL     1       9.834 -13.199 -20.168  1.00  0.00     0.029 A 
HETATM   16  C   UNL     1       8.620 -12.776 -19.587  1.00  0.00     0.030 A 
HETATM   17  C   UNL     1       8.437 -12.794 -18.202  1.00  0.00     0.016 A 
BRANCH  15  18
HETATM   18  N   UNL     1      10.024 -13.184 -21.600  1.00  0.00    -0.390 N 
HETATM   19  C   UNL     1      11.109 -13.941 -22.212  1.00  0.00     0.149 C 
HETATM   20  C   UNL     1       9.137 -12.413 -22.459  1.00  0.00     0.149 C 
ENDBRANCH  15  18
ENDBRANCH   4  12
TORSDOF 2
ENDMDL
MODEL 15
REMARK VINA RESULT:      -5.4      1.433      1.766
REMARK  2 active torsions:
REMARK  status: ('A' for Active; 'I' for Inactive)
REMARK    1  A    between atoms: N_3  and  C_15 
REMARK    2  A    between atoms: C_5  and  C_7 
ROOT
HETATM    1  S   UNL     1       8.064 -13.483 -14.873  1.00  0.00    -0.069 SA
HETATM    2  N   UNL     1      10.595 -13.506 -15.000  1.00  0.00    -0.344 N 
HETATM    3  C   UNL     1      10.116 -13.545 -16.286  1.00  0.00     0.052 A 
HETATM    4  C   UNL     1       9.569 -13.439 -14.084  1.00  0.00     0.087 A 
HETATM    5  C   UNL     1       8.735 -13.539 -16.398  1.00  0.00     0.034 A 
HETATM    6  C   UNL     1      10.898 -13.606 -17.453  1.00  0.00     0.031 A 
HETATM    7  C   UNL     1       8.078 -13.584 -17.625  1.00  0.00     0.028 A 
HETATM    8  C   UNL     1      12.034 -13.597 -14.720  1.00  0.00     0.157 C 
HETATM    9  C   UNL     1       8.854 -13.638 -18.798  1.00  0.00    -0.061 A 
HETATM   10  C   UNL     1      10.261 -13.650 -18.704  1.00  0.00     0.009 A 
HETATM   11  C   UNL     1       8.200 -13.687 -20.146  1.00  0.00     0.048 C 
ENDROOT
BRANCH   4  12
HETATM   12  C   UNL     1       9.659 -13.309 -12.595  1.00  0.00    -0.002 A 
HETATM   13  C   UNL     1       9.188 -12.184 -11.895  1.00  0.00     0.016 A 
HETATM   14  C   UNL     1       9.272 -12.113 -10.501  1.00  0.00     0.030 A 
HETATM   15  C   UNL     1       9.822 -13.170  -9.746  1.00  0.00     0.029 A 
HETATM   16  C   UNL     1      10.272 -14.307 -10.450  1.00  0.00     0.030 A 
HETATM   17  C   UNL     1      10.183 -14.376 -11.843  1.00  0.00     0.016 A 
BRANCH  15  18
HETATM   18  N   UNL     1       9.909 -13.098  -8.306  1.00  0.00    -0.390 N 
HETATM   19  C   UNL     1      10.909 -13.875  -7.584  1.00  0.00     0.149 C 
HETATM   20  C   UNL     1       9.000 -12.249  -7.549  1.00  0.00     0.149 C 
ENDBRANCH  15  18
ENDBRANCH   4  12
TORSDOF 2
ENDMDL
MODEL 16
REMARK VINA RESULT:      -5.4      2.573      8.516
REMARK  2 active torsions:
REMARK  status: ('A' for Active; 'I' for Inactive)
REMARK    1  A    between atoms: N_3  and  C_15 
REMARK    2  A    between atoms: C_5  and  C_7 
ROOT
HETATM    1  S   UNL     1      11.362 -13.994 -15.747  1.00  0.00    -0.069 SA
HETATM    2  N   UNL     1       9.049 -12.969 -15.602  1.00  0.00    -0.344 N 
HETATM    3  C   UNL     1       9.512 -13.126 -14.320  1.00  0.00     0.052 A 
HETATM    4  C   UNL     1       9.981 -13.383 -16.527  1.00  0.00     0.087 A 
HETATM    5  C   UNL     1      10.778 -13.680 -14.217  1.00  0.00     0.034 A 
HETATM    6  C   UNL     1       8.814 -12.792 -13.146  1.00  0.00     0.031 A 
HETATM    7  C   UNL     1      11.400 -13.918 -12.995  1.00  0.00     0.028 A 
HETATM    8  C   UNL     1       7.689 -12.479 -15.866  1.00  0.00     0.157 C 
HETATM    9  C   UNL     1      10.710 -13.580 -11.815  1.00  0.00    -0.061 A 
HETATM   10  C   UNL     1       9.418 -13.019 -11.899  1.00  0.00     0.009 A 
HETATM   11  C   UNL     1      11.332 -13.814 -10.472  1.00  0.00     0.048 C 
ENDROOT
BRANCH   4  12
HETATM   12  C   UNL     1       9.902 -13.316 -18.022  1.00  0.00    -0.002 A 
HETATM   13  C   UNL     1       9.563 -12.142 -18.718  1.00  0.00     0.016 A 
HETATM   14  C   UNL     1       9.523 -12.117 -20.115  1.00  0.00     0.030 A 
HETATM   15  C   UNL     1       9.830 -13.264 -20.877  1.00  0.00     0.029 A 
HETATM   16  C   UNL     1      10.192 -14.433 -20.175  1.00  0.00     0.030 A 
HETATM   17  C   UNL     1      10.236 -14.453 -18.779  1.00  0.00     0.016 A 
BRANCH  15  18
HETATM   18  N   UNL     1       9.789 -13.240 -22.320  1.00  0.00    -0.390 N 
HETATM   19  C   UNL     1       8.813 -12.415 -23.020  1.00  0.00     0.149 C 
HETATM   20  C   UNL     1      10.719 -14.041 -23.103  1.00  0.00     0.149 C 
ENDBRANCH  15  18
ENDBRANCH   4  12
TORSDOF 2
ENDMDL
MODEL 17
REMARK VINA RESULT:      -5.4      1.936      7.942
REMARK  2 active torsions:
REMARK  status: ('A' for Active; 'I' for Inactive)
REMARK    1  A    between atoms: N_3  and  C_15 
REMARK    2  A    between atoms: C_5  and  C_7 
ROOT
HETATM    1  S   UNL     1       8.414 -13.352 -13.169  1.00  0.00    -0.069 SA
HETATM    2  N   UNL     1      10.870 -13.608 -13.738  1.00  0.00    -0.344 N 
HETATM    3  C   UNL     1      10.743 -13.760 -12.380  1.00  0.00     0.052 A 
HETATM    4  C   UNL     1       9.648 -13.399 -14.337  1.00  0.00     0.087 A 
HETATM    5  C   UNL     1       9.449 -13.648 -11.896  1.00  0.00     0.034 A 
HETATM    6  C   UNL     1      11.794 -13.996 -11.477  1.00  0.00     0.031 A 
HETATM    7  C   UNL     1       9.137 -13.766 -10.544  1.00  0.00     0.028 A 
HETATM    8  C   UNL     1      12.190 -13.611 -14.384  1.00  0.00     0.157 C 
HETATM    9  C   UNL     1      10.183 -14.009  -9.634  1.00  0.00    -0.061 A 
HETATM   10  C   UNL     1      11.507 -14.122 -10.108  1.00  0.00     0.009 A 
HETATM   11  C   UNL     1       9.905 -14.146  -8.168  1.00  0.00     0.048 C 
ENDROOT
BRANCH   4  12
HETATM   12  C   UNL     1       9.339 -13.259 -15.796  1.00  0.00    -0.002 A 
HETATM   13  C   UNL     1       9.084 -14.359 -16.634  1.00  0.00     0.016 A 
HETATM   14  C   UNL     1       8.778 -14.181 -17.986  1.00  0.00     0.030 A 
HETATM   15  C   UNL     1       8.703 -12.893 -18.557  1.00  0.00     0.029 A 
HETATM   16  C   UNL     1       8.937 -11.791 -17.707  1.00  0.00     0.030 A 
HETATM   17  C   UNL     1       9.238 -11.972 -16.355  1.00  0.00     0.016 A 
BRANCH  15  18
HETATM   18  N   UNL     1       8.387 -12.708 -19.954  1.00  0.00    -0.390 N 
HETATM   19  C   UNL     1       7.477 -13.619 -20.636  1.00  0.00     0.149 C 
HETATM   20  C   UNL     1       8.973 -11.608 -20.708  1.00  0.00     0.149 C 
ENDBRANCH  15  18
ENDBRANCH   4  12
TORSDOF 2
ENDMDL
MODEL 18
REMARK VINA RESULT:      -5.4      3.027      9.454
REMARK  2 active torsions:
REMARK  status: ('A' for Active; 'I' for Inactive)
REMARK    1  A    between atoms: N_3  and  C_15 
REMARK    2  A    between atoms: C_5  and  C_7 
ROOT
HETATM    1  S   UNL     1       8.222 -12.364  -6.730  1.00  0.00    -0.069 SA
HETATM    2  N   UNL     1      10.461 -13.494  -7.087  1.00  0.00    -0.344 N 
HETATM    3  C   UNL     1      10.236 -13.443  -5.735  1.00  0.00     0.052 A 
HETATM    4  C   UNL     1       9.409 -12.954  -7.793  1.00  0.00     0.087 A 
HETATM    5  C   UNL     1       9.042 -12.849  -5.361  1.00  0.00     0.034 A 
HETATM    6  C   UNL     1      11.106 -13.917  -4.737  1.00  0.00     0.031 A 
HETATM    7  C   UNL     1       8.655 -12.704  -4.032  1.00  0.00     0.028 A 
HETATM    8  C   UNL     1      11.724 -14.013  -7.630  1.00  0.00     0.157 C 
HETATM    9  C   UNL     1       9.517 -13.182  -3.028  1.00  0.00    -0.061 A 
HETATM   10  C   UNL     1      10.740 -13.786  -3.388  1.00  0.00     0.009 A 
HETATM   11  C   UNL     1       9.151 -13.053  -1.580  1.00  0.00     0.048 C 
ENDROOT
BRANCH   4  12
HETATM   12  C   UNL     1       9.225 -12.880  -9.278  1.00  0.00    -0.002 A 
HETATM   13  C   UNL     1       9.236 -11.669  -9.992  1.00  0.00     0.016 A 
HETATM   14  C   UNL     1       9.082 -11.648 -11.381  1.00  0.00     0.030 A 
HETATM   15  C   UNL     1       8.920 -12.840 -12.118  1.00  0.00     0.029 A 
HETATM   16  C   UNL     1       8.932 -14.055 -11.400  1.00  0.00     0.030 A 
HETATM   17  C   UNL     1       9.091 -14.072 -10.012  1.00  0.00     0.016 A 
BRANCH  15  18
HETATM   18  N   UNL     1       8.761 -12.820 -13.553  1.00  0.00    -0.390 N 
HETATM   19  C   UNL     1       7.987 -13.853 -14.228  1.00  0.00     0.149 C 
HETATM   20  C   UNL     1       9.371 -11.767 -14.353  1.00  0.00     0.149 C 
ENDBRANCH  15  18
ENDBRANCH   4  12
TORSDOF 2
ENDMDL
MODEL 19
REMARK VINA RESULT:      -5.3      2.544      4.031
REMARK  2 active torsions:
REMARK  status: ('A' for Active; 'I' for Inactive)
REMARK    1  A    between atoms: N_3  and  C_15 
REMARK    2  A    between atoms: C_5  and  C_7 
ROOT
HETATM    1  S   UNL     1      11.489 -13.874 -11.126  1.00  0.00    -0.069 SA
HETATM    2  N   UNL     1       9.108 -13.021 -11.266  1.00  0.00    -0.344 N 
HETATM    3  C   UNL     1       9.536 -13.261 -12.547  1.00  0.00     0.052 A 
HETATM    4  C   UNL     1      10.078 -13.341 -10.343  1.00  0.00     0.087 A 
HETATM    5  C   UNL     1      10.833 -13.738 -12.652  1.00  0.00     0.034 A 
HETATM    6  C   UNL     1       8.787 -13.051 -13.718  1.00  0.00     0.031 A 
HETATM    7  C   UNL     1      11.433 -14.028 -13.875  1.00  0.00     0.028 A 
HETATM    8  C   UNL     1       7.789 -12.429 -11.002  1.00  0.00     0.157 C 
HETATM    9  C   UNL     1      10.688 -13.826 -15.051  1.00  0.00    -0.061 A 
HETATM   10  C   UNL     1       9.367 -13.337 -14.965  1.00  0.00     0.009 A 
HETATM   11  C   UNL     1      11.283 -14.122 -16.394  1.00  0.00     0.048 C 
ENDROOT
BRANCH   4  12
HETATM   12  C   UNL     1       9.991 -13.296  -8.848  1.00  0.00    -0.002 A 
HETATM   13  C   UNL     1       9.239 -12.332  -8.153  1.00  0.00     0.016 A 
HETATM   14  C   UNL     1       9.168 -12.341  -6.757  1.00  0.00     0.030 A 
HETATM   15  C   UNL     1       9.838 -13.321  -5.996  1.00  0.00     0.029 A 
HETATM   16  C   UNL     1      10.573 -14.300  -6.698  1.00  0.00     0.030 A 
HETATM   17  C   UNL     1      10.639 -14.291  -8.093  1.00  0.00     0.016 A 
BRANCH  15  18
HETATM   18  N   UNL     1       9.766 -13.331  -4.554  1.00  0.00    -0.390 N 
HETATM   19  C   UNL     1       8.540 -12.941  -3.870  1.00  0.00     0.149 C 
HETATM   20  C   UNL     1      10.917 -13.728  -3.755  1.00  0.00     0.149 C 
ENDBRANCH  15  18
ENDBRANCH   4  12
TORSDOF 2
ENDMDL
