MODEL 1
REMARK VINA RESULT:      -5.2      0.000      0.000
REMARK  15 active torsions:
REMARK  status: ('A' for Active; 'I' for Inactive)
REMARK    1  A    between atoms: O_1  and  C_22 
REMARK    2  A    between atoms: C_3  and  C_4 
REMARK    3  A    between atoms: C_3  and  C_5 
REMARK    4  A    between atoms: C_4  and  C_6 
REMARK    5  A    between atoms: C_5  and  C_7 
REMARK    6  A    between atoms: C_9  and  C_10 
REMARK    7  A    between atoms: C_9  and  C_13 
REMARK    8  A    between atoms: C_10  and  C_14 
REMARK    9  A    between atoms: C_11  and  C_12 
REMARK   10  A    between atoms: C_12  and  C_16 
REMARK   11  A    between atoms: C_13  and  C_22 
REMARK   12  A    between atoms: C_15  and  C_17 
REMARK   13  A    between atoms: C_15  and  C_20 
REMARK   14  A    between atoms: C_18  and  C_19 
REMARK   15  A    between atoms: C_18  and  C_21 
ROOT
HETATM    1  O   UNL     1       8.059   2.172  -4.969  1.00  0.00    -0.776 OA
HETATM    2  H   UNL     1       7.344   1.992  -4.342  1.00  0.00     0.167 HD
ENDROOT
BRANCH   1   3
HETATM    3  C   UNL     1       8.068   1.622  -6.201  1.00  0.00     0.139 C 
HETATM    4  O   UNL     1       7.025   1.498  -6.825  1.00  0.00    -0.650 OA
BRANCH   3   5
HETATM    5  C   UNL     1       9.366   1.150  -6.798  1.00  0.00     0.110 C 
BRANCH   5   6
HETATM    6  C   UNL     1       9.882  -0.134  -6.133  1.00  0.00     0.014 C 
BRANCH   6   7
HETATM    7  C   UNL     1      10.223  -1.231  -7.150  1.00  0.00     0.027 C 
BRANCH   7   8
HETATM    8  C   UNL     1      11.720  -1.375  -7.259  1.00  0.00    -0.030 C 
HETATM    9  C   UNL     1      12.431  -1.254  -8.397  1.00  0.00    -0.027 C 
BRANCH   9  10
HETATM   10  C   UNL     1      11.860  -0.931  -9.754  1.00  0.00     0.053 C 
BRANCH  10  11
HETATM   11  C   UNL     1      11.103  -2.110 -10.325  1.00  0.00    -0.027 C 
HETATM   12  C   UNL     1      10.636  -2.255 -11.582  1.00  0.00    -0.027 C 
BRANCH  12  13
HETATM   13  C   UNL     1      10.780  -1.278 -12.722  1.00  0.00     0.053 C 
BRANCH  13  14
HETATM   14  C   UNL     1      12.078  -1.525 -13.454  1.00  0.00    -0.027 C 
HETATM   15  C   UNL     1      12.298  -1.246 -14.755  1.00  0.00    -0.027 C 
BRANCH  15  16
HETATM   16  C   UNL     1      11.271  -0.657 -15.686  1.00  0.00     0.053 C 
BRANCH  16  17
HETATM   17  C   UNL     1      10.723  -1.695 -16.633  1.00  0.00    -0.027 C 
HETATM   18  C   UNL     1      11.107  -1.818 -17.916  1.00  0.00    -0.030 C 
BRANCH  18  19
HETATM   19  C   UNL     1      12.123  -0.937 -18.597  1.00  0.00     0.027 C 
BRANCH  19  20
HETATM   20  C   UNL     1      12.424  -1.486 -19.996  1.00  0.00     0.004 C 
BRANCH  20  21
HETATM   21  C   UNL     1      11.676  -0.696 -21.075  1.00  0.00    -0.000 C 
BRANCH  21  22
HETATM   22  C   UNL     1      10.864  -1.635 -21.975  1.00  0.00    -0.005 C 
HETATM   23  C   UNL     1      11.238  -1.452 -23.442  1.00  0.00     0.005 C 
ENDBRANCH  21  22
ENDBRANCH  20  21
ENDBRANCH  19  20
ENDBRANCH  18  19
ENDBRANCH  16  17
ENDBRANCH  15  16
ENDBRANCH  13  14
ENDBRANCH  12  13
ENDBRANCH  10  11
ENDBRANCH   9  10
ENDBRANCH   7   8
ENDBRANCH   6   7
ENDBRANCH   5   6
ENDBRANCH   3   5
ENDBRANCH   1   3
TORSDOF 15
ENDMDL
MODEL 2
REMARK VINA RESULT:      -5.1     10.180     11.200
REMARK  15 active torsions:
REMARK  status: ('A' for Active; 'I' for Inactive)
REMARK    1  A    between atoms: O_1  and  C_22 
REMARK    2  A    between atoms: C_3  and  C_4 
REMARK    3  A    between atoms: C_3  and  C_5 
REMARK    4  A    between atoms: C_4  and  C_6 
REMARK    5  A    between atoms: C_5  and  C_7 
REMARK    6  A    between atoms: C_9  and  C_10 
REMARK    7  A    between atoms: C_9  and  C_13 
REMARK    8  A    between atoms: C_10  and  C_14 
REMARK    9  A    between atoms: C_11  and  C_12 
REMARK   10  A    between atoms: C_12  and  C_16 
REMARK   11  A    between atoms: C_13  and  C_22 
REMARK   12  A    between atoms: C_15  and  C_17 
REMARK   13  A    between atoms: C_15  and  C_20 
REMARK   14  A    between atoms: C_18  and  C_19 
REMARK   15  A    between atoms: C_18  and  C_21 
ROOT
HETATM    1  O   UNL     1      23.244   2.058  -1.321  1.00  0.00    -0.776 OA
HETATM    2  H   UNL     1      24.107   2.104  -0.887  1.00  0.00     0.167 HD
ENDROOT
BRANCH   1   3
HETATM    3  C   UNL     1      22.684   0.874  -1.650  1.00  0.00     0.139 C 
HETATM    4  O   UNL     1      23.371  -0.136  -1.698  1.00  0.00    -0.650 OA
BRANCH   3   5
HETATM    5  C   UNL     1      21.217   0.805  -1.970  1.00  0.00     0.110 C 
BRANCH   5   6
HETATM    6  C   UNL     1      20.841   1.670  -3.182  1.00  0.00     0.014 C 
BRANCH   6   7
HETATM    7  C   UNL     1      21.152   0.984  -4.518  1.00  0.00     0.027 C 
BRANCH   7   8
HETATM    8  C   UNL     1      19.874   0.775  -5.292  1.00  0.00    -0.030 C 
HETATM    9  C   UNL     1      19.664   1.164  -6.563  1.00  0.00    -0.027 C 
BRANCH   9  10
HETATM   10  C   UNL     1      20.675   1.852  -7.446  1.00  0.00     0.053 C 
BRANCH  10  11
HETATM   11  C   UNL     1      21.503   0.849  -8.218  1.00  0.00    -0.027 C 
HETATM   12  C   UNL     1      21.364   0.493  -9.511  1.00  0.00    -0.027 C 
BRANCH  12  13
HETATM   13  C   UNL     1      20.358   1.030 -10.497  1.00  0.00     0.053 C 
BRANCH  13  14
HETATM   14  C   UNL     1      20.929   2.231 -11.215  1.00  0.00    -0.027 C 
HETATM   15  C   UNL     1      21.415   2.221 -12.473  1.00  0.00    -0.027 C 
BRANCH  15  16
HETATM   16  C   UNL     1      21.479   1.001 -13.354  1.00  0.00     0.053 C 
BRANCH  16  17
HETATM   17  C   UNL     1      20.185   0.789 -14.099  1.00  0.00    -0.027 C 
HETATM   18  C   UNL     1      20.000   1.115 -15.390  1.00  0.00    -0.030 C 
BRANCH  18  19
HETATM   19  C   UNL     1      21.044   1.747 -16.275  1.00  0.00     0.027 C 
BRANCH  19  20
HETATM   20  C   UNL     1      21.228   0.901 -17.539  1.00  0.00     0.004 C 
BRANCH  20  21
HETATM   21  C   UNL     1      20.827   1.684 -18.794  1.00  0.00    -0.000 C 
BRANCH  21  22
HETATM   22  C   UNL     1      20.756   0.760 -20.015  1.00  0.00    -0.005 C 
HETATM   23  C   UNL     1      20.004   1.424 -21.165  1.00  0.00     0.005 C 
ENDBRANCH  21  22
ENDBRANCH  20  21
ENDBRANCH  19  20
ENDBRANCH  18  19
ENDBRANCH  16  17
ENDBRANCH  15  16
ENDBRANCH  13  14
ENDBRANCH  12  13
ENDBRANCH  10  11
ENDBRANCH   9  10
ENDBRANCH   7   8
ENDBRANCH   6   7
ENDBRANCH   5   6
ENDBRANCH   3   5
ENDBRANCH   1   3
TORSDOF 15
ENDMDL
MODEL 3
REMARK VINA RESULT:      -4.8     13.222     16.411
REMARK  15 active torsions:
REMARK  status: ('A' for Active; 'I' for Inactive)
REMARK    1  A    between atoms: O_1  and  C_22 
REMARK    2  A    between atoms: C_3  and  C_4 
REMARK    3  A    between atoms: C_3  and  C_5 
REMARK    4  A    between atoms: C_4  and  C_6 
REMARK    5  A    between atoms: C_5  and  C_7 
REMARK    6  A    between atoms: C_9  and  C_10 
REMARK    7  A    between atoms: C_9  and  C_13 
REMARK    8  A    between atoms: C_10  and  C_14 
REMARK    9  A    between atoms: C_11  and  C_12 
REMARK   10  A    between atoms: C_12  and  C_16 
REMARK   11  A    between atoms: C_13  and  C_22 
REMARK   12  A    between atoms: C_15  and  C_17 
REMARK   13  A    between atoms: C_15  and  C_20 
REMARK   14  A    between atoms: C_18  and  C_19 
REMARK   15  A    between atoms: C_18  and  C_21 
ROOT
HETATM    1  O   UNL     1       9.059 -10.892 -20.406  1.00  0.00    -0.776 OA
HETATM    2  H   UNL     1       9.289 -10.083 -20.883  1.00  0.00     0.167 HD
ENDROOT
BRANCH   1   3
HETATM    3  C   UNL     1       8.469 -11.934 -21.031  1.00  0.00     0.139 C 
HETATM    4  O   UNL     1       7.296 -12.197 -20.809  1.00  0.00    -0.650 OA
BRANCH   3   5
HETATM    5  C   UNL     1       9.263 -12.776 -21.991  1.00  0.00     0.110 C 
BRANCH   5   6
HETATM    6  C   UNL     1       9.324 -14.249 -21.563  1.00  0.00     0.014 C 
BRANCH   6   7
HETATM    7  C   UNL     1      10.735 -14.687 -21.148  1.00  0.00     0.027 C 
BRANCH   7   8
HETATM    8  C   UNL     1      11.352 -13.635 -20.261  1.00  0.00    -0.030 C 
HETATM    9  C   UNL     1      11.201 -13.559 -18.925  1.00  0.00    -0.027 C 
BRANCH   9  10
HETATM   10  C   UNL     1      10.409 -14.524 -18.079  1.00  0.00     0.053 C 
BRANCH  10  11
HETATM   11  C   UNL     1       8.946 -14.144 -18.038  1.00  0.00    -0.027 C 
HETATM   12  C   UNL     1       8.401 -13.034 -17.499  1.00  0.00    -0.027 C 
BRANCH  12  13
HETATM   13  C   UNL     1       9.131 -11.900 -16.826  1.00  0.00     0.053 C 
BRANCH  13  14
HETATM   14  C   UNL     1       8.824 -11.893 -15.347  1.00  0.00    -0.027 C 
HETATM   15  C   UNL     1       9.556 -12.518 -14.402  1.00  0.00    -0.027 C 
BRANCH  15  16
HETATM   16  C   UNL     1      10.789 -13.337 -14.681  1.00  0.00     0.053 C 
BRANCH  16  17
HETATM   17  C   UNL     1      11.423 -13.833 -13.405  1.00  0.00    -0.027 C 
HETATM   18  C   UNL     1      10.944 -14.859 -12.680  1.00  0.00    -0.030 C 
BRANCH  18  19
HETATM   19  C   UNL     1       9.707 -15.651 -13.023  1.00  0.00     0.027 C 
BRANCH  19  20
HETATM   20  C   UNL     1      10.059 -16.736 -14.046  1.00  0.00     0.004 C 
BRANCH  20  21
HETATM   21  C   UNL     1       9.114 -16.689 -15.252  1.00  0.00    -0.000 C 
BRANCH  21  22
HETATM   22  C   UNL     1       7.904 -15.792 -14.962  1.00  0.00    -0.005 C 
HETATM   23  C   UNL     1       6.706 -16.190 -15.819  1.00  0.00     0.005 C 
ENDBRANCH  21  22
ENDBRANCH  20  21
ENDBRANCH  19  20
ENDBRANCH  18  19
ENDBRANCH  16  17
ENDBRANCH  15  16
ENDBRANCH  13  14
ENDBRANCH  12  13
ENDBRANCH  10  11
ENDBRANCH   9  10
ENDBRANCH   7   8
ENDBRANCH   6   7
ENDBRANCH   5   6
ENDBRANCH   3   5
ENDBRANCH   1   3
TORSDOF 15
ENDMDL
MODEL 4
REMARK VINA RESULT:      -4.8     24.241     26.473
REMARK  15 active torsions:
REMARK  status: ('A' for Active; 'I' for Inactive)
REMARK    1  A    between atoms: O_1  and  C_22 
REMARK    2  A    between atoms: C_3  and  C_4 
REMARK    3  A    between atoms: C_3  and  C_5 
REMARK    4  A    between atoms: C_4  and  C_6 
REMARK    5  A    between atoms: C_5  and  C_7 
REMARK    6  A    between atoms: C_9  and  C_10 
REMARK    7  A    between atoms: C_9  and  C_13 
REMARK    8  A    between atoms: C_10  and  C_14 
REMARK    9  A    between atoms: C_11  and  C_12 
REMARK   10  A    between atoms: C_12  and  C_16 
REMARK   11  A    between atoms: C_13  and  C_22 
REMARK   12  A    between atoms: C_15  and  C_17 
REMARK   13  A    between atoms: C_15  and  C_20 
REMARK   14  A    between atoms: C_18  and  C_19 
REMARK   15  A    between atoms: C_18  and  C_21 
ROOT
HETATM    1  O   UNL     1      16.377 -25.224 -18.349  1.00  0.00    -0.776 OA
HETATM    2  H   UNL     1      16.656 -24.994 -19.246  1.00  0.00     0.167 HD
ENDROOT
BRANCH   1   3
HETATM    3  C   UNL     1      15.084 -25.142 -17.972  1.00  0.00     0.139 C 
HETATM    4  O   UNL     1      14.336 -24.343 -18.517  1.00  0.00    -0.650 OA
BRANCH   3   5
HETATM    5  C   UNL     1      14.568 -26.026 -16.870  1.00  0.00     0.110 C 
BRANCH   5   6
HETATM    6  C   UNL     1      13.165 -26.573 -17.168  1.00  0.00     0.014 C 
BRANCH   6   7
HETATM    7  C   UNL     1      12.127 -26.135 -16.126  1.00  0.00     0.027 C 
BRANCH   7   8
HETATM    8  C   UNL     1      11.533 -27.351 -15.459  1.00  0.00    -0.030 C 
HETATM    9  C   UNL     1      11.692 -27.680 -14.163  1.00  0.00    -0.027 C 
BRANCH   9  10
HETATM   10  C   UNL     1      12.467 -26.881 -13.147  1.00  0.00     0.053 C 
BRANCH  10  11
HETATM   11  C   UNL     1      13.957 -26.994 -13.382  1.00  0.00    -0.027 C 
HETATM   12  C   UNL     1      14.878 -26.011 -13.300  1.00  0.00    -0.027 C 
BRANCH  12  13
HETATM   13  C   UNL     1      14.635 -24.569 -12.934  1.00  0.00     0.053 C 
BRANCH  13  14
HETATM   14  C   UNL     1      13.769 -23.908 -13.981  1.00  0.00    -0.027 C 
HETATM   15  C   UNL     1      12.728 -23.091 -13.720  1.00  0.00    -0.027 C 
BRANCH  15  16
HETATM   16  C   UNL     1      12.258 -22.722 -12.338  1.00  0.00     0.053 C 
BRANCH  16  17
HETATM   17  C   UNL     1      11.406 -23.812 -11.735  1.00  0.00    -0.027 C 
HETATM   18  C   UNL     1      11.575 -24.295 -10.492  1.00  0.00    -0.030 C 
BRANCH  18  19
HETATM   19  C   UNL     1      12.638 -23.833  -9.527  1.00  0.00     0.027 C 
BRANCH  19  20
HETATM   20  C   UNL     1      13.926 -24.628  -9.762  1.00  0.00     0.004 C 
BRANCH  20  21
HETATM   21  C   UNL     1      13.679 -26.135  -9.635  1.00  0.00    -0.000 C 
BRANCH  21  22
HETATM   22  C   UNL     1      13.450 -26.530  -8.171  1.00  0.00    -0.005 C 
HETATM   23  C   UNL     1      12.193 -27.381  -8.020  1.00  0.00     0.005 C 
ENDBRANCH  21  22
ENDBRANCH  20  21
ENDBRANCH  19  20
ENDBRANCH  18  19
ENDBRANCH  16  17
ENDBRANCH  15  16
ENDBRANCH  13  14
ENDBRANCH  12  13
ENDBRANCH  10  11
ENDBRANCH   9  10
ENDBRANCH   7   8
ENDBRANCH   6   7
ENDBRANCH   5   6
ENDBRANCH   3   5
ENDBRANCH   1   3
TORSDOF 15
ENDMDL
MODEL 5
REMARK VINA RESULT:      -4.7     13.099     16.732
REMARK  15 active torsions:
REMARK  status: ('A' for Active; 'I' for Inactive)
REMARK    1  A    between atoms: O_1  and  C_22 
REMARK    2  A    between atoms: C_3  and  C_4 
REMARK    3  A    between atoms: C_3  and  C_5 
REMARK    4  A    between atoms: C_4  and  C_6 
REMARK    5  A    between atoms: C_5  and  C_7 
REMARK    6  A    between atoms: C_9  and  C_10 
REMARK    7  A    between atoms: C_9  and  C_13 
REMARK    8  A    between atoms: C_10  and  C_14 
REMARK    9  A    between atoms: C_11  and  C_12 
REMARK   10  A    between atoms: C_12  and  C_16 
REMARK   11  A    between atoms: C_13  and  C_22 
REMARK   12  A    between atoms: C_15  and  C_17 
REMARK   13  A    between atoms: C_15  and  C_20 
REMARK   14  A    between atoms: C_18  and  C_19 
REMARK   15  A    between atoms: C_18  and  C_21 
ROOT
HETATM    1  O   UNL     1       8.940 -10.851 -11.341  1.00  0.00    -0.776 OA
HETATM    2  H   UNL     1       8.565 -10.308 -10.633  1.00  0.00     0.167 HD
ENDROOT
BRANCH   1   3
HETATM    3  C   UNL     1       8.694 -12.176 -11.416  1.00  0.00     0.139 C 
HETATM    4  O   UNL     1       7.974 -12.617 -12.300  1.00  0.00    -0.650 OA
BRANCH   3   5
HETATM    5  C   UNL     1       9.299 -13.108 -10.401  1.00  0.00     0.110 C 
BRANCH   5   6
HETATM    6  C   UNL     1      10.561 -12.523  -9.751  1.00  0.00     0.014 C 
BRANCH   6   7
HETATM    7  C   UNL     1      11.475 -13.603  -9.159  1.00  0.00     0.027 C 
BRANCH   7   8
HETATM    8  C   UNL     1      11.722 -14.680 -10.186  1.00  0.00    -0.030 C 
HETATM    9  C   UNL     1      11.463 -15.990 -10.015  1.00  0.00    -0.027 C 
BRANCH   9  10
HETATM   10  C   UNL     1      10.860 -16.608  -8.780  1.00  0.00     0.053 C 
BRANCH  10  11
HETATM   11  C   UNL     1       9.779 -17.605  -9.137  1.00  0.00    -0.027 C 
HETATM   12  C   UNL     1       8.448 -17.393  -9.175  1.00  0.00    -0.027 C 
BRANCH  12  13
HETATM   13  C   UNL     1       7.726 -16.101  -8.888  1.00  0.00     0.053 C 
BRANCH  13  14
HETATM   14  C   UNL     1       7.321 -16.048  -7.434  1.00  0.00    -0.027 C 
HETATM   15  C   UNL     1       7.793 -15.164  -6.531  1.00  0.00    -0.027 C 
BRANCH  15  16
HETATM   16  C   UNL     1       8.816 -14.100  -6.833  1.00  0.00     0.053 C 
BRANCH  16  17
HETATM   17  C   UNL     1       8.198 -12.724  -6.829  1.00  0.00    -0.027 C 
HETATM   18  C   UNL     1       8.604 -11.722  -6.030  1.00  0.00    -0.030 C 
BRANCH  18  19
HETATM   19  C   UNL     1       9.718 -11.826  -5.019  1.00  0.00     0.027 C 
BRANCH  19  20
HETATM   20  C   UNL     1       9.161 -12.348  -3.691  1.00  0.00     0.004 C 
BRANCH  20  21
HETATM   21  C   UNL     1      10.123 -13.347  -3.040  1.00  0.00    -0.000 C 
BRANCH  21  22
HETATM   22  C   UNL     1       9.671 -14.789  -3.299  1.00  0.00    -0.005 C 
HETATM   23  C   UNL     1      10.753 -15.584  -4.024  1.00  0.00     0.005 C 
ENDBRANCH  21  22
ENDBRANCH  20  21
ENDBRANCH  19  20
ENDBRANCH  18  19
ENDBRANCH  16  17
ENDBRANCH  15  16
ENDBRANCH  13  14
ENDBRANCH  12  13
ENDBRANCH  10  11
ENDBRANCH   9  10
ENDBRANCH   7   8
ENDBRANCH   6   7
ENDBRANCH   5   6
ENDBRANCH   3   5
ENDBRANCH   1   3
TORSDOF 15
ENDMDL
MODEL 6
REMARK VINA RESULT:      -4.7     12.511     16.327
REMARK  15 active torsions:
REMARK  status: ('A' for Active; 'I' for Inactive)
REMARK    1  A    between atoms: O_1  and  C_22 
REMARK    2  A    between atoms: C_3  and  C_4 
REMARK    3  A    between atoms: C_3  and  C_5 
REMARK    4  A    between atoms: C_4  and  C_6 
REMARK    5  A    between atoms: C_5  and  C_7 
REMARK    6  A    between atoms: C_9  and  C_10 
REMARK    7  A    between atoms: C_9  and  C_13 
REMARK    8  A    between atoms: C_10  and  C_14 
REMARK    9  A    between atoms: C_11  and  C_12 
REMARK   10  A    between atoms: C_12  and  C_16 
REMARK   11  A    between atoms: C_13  and  C_22 
REMARK   12  A    between atoms: C_15  and  C_17 
REMARK   13  A    between atoms: C_15  and  C_20 
REMARK   14  A    between atoms: C_18  and  C_19 
REMARK   15  A    between atoms: C_18  and  C_21 
ROOT
HETATM    1  O   UNL     1       9.556 -11.179 -19.183  1.00  0.00    -0.776 OA
HETATM    2  H   UNL     1       9.803 -11.017 -20.105  1.00  0.00     0.167 HD
ENDROOT
BRANCH   1   3
HETATM    3  C   UNL     1       9.017 -12.355 -18.796  1.00  0.00     0.139 C 
HETATM    4  O   UNL     1       7.968 -12.740 -19.291  1.00  0.00    -0.650 OA
BRANCH   3   5
HETATM    5  C   UNL     1       9.705 -13.183 -17.746  1.00  0.00     0.110 C 
BRANCH   5   6
HETATM    6  C   UNL     1       8.781 -13.514 -16.565  1.00  0.00     0.014 C 
BRANCH   6   7
HETATM    7  C   UNL     1       8.691 -12.370 -15.547  1.00  0.00     0.027 C 
BRANCH   7   8
HETATM    8  C   UNL     1       9.840 -12.464 -14.575  1.00  0.00    -0.030 C 
HETATM    9  C   UNL     1       9.720 -12.655 -13.247  1.00  0.00    -0.027 C 
BRANCH   9  10
HETATM   10  C   UNL     1       8.421 -12.833 -12.503  1.00  0.00     0.053 C 
BRANCH  10  11
HETATM   11  C   UNL     1       7.768 -14.153 -12.848  1.00  0.00    -0.027 C 
HETATM   12  C   UNL     1       7.895 -15.326 -12.195  1.00  0.00    -0.027 C 
BRANCH  12  13
HETATM   13  C   UNL     1       8.705 -15.590 -10.951  1.00  0.00     0.053 C 
BRANCH  13  14
HETATM   14  C   UNL     1      10.096 -16.044 -11.327  1.00  0.00    -0.027 C 
HETATM   15  C   UNL     1      11.231 -15.372 -11.046  1.00  0.00    -0.027 C 
BRANCH  15  16
HETATM   16  C   UNL     1      11.285 -14.050 -10.326  1.00  0.00     0.053 C 
BRANCH  16  17
HETATM   17  C   UNL     1      11.441 -14.237  -8.838  1.00  0.00    -0.027 C 
HETATM   18  C   UNL     1      10.631 -13.677  -7.923  1.00  0.00    -0.030 C 
BRANCH  18  19
HETATM   19  C   UNL     1       9.465 -12.777  -8.243  1.00  0.00     0.027 C 
BRANCH  19  20
HETATM   20  C   UNL     1       8.532 -12.692  -7.030  1.00  0.00     0.004 C 
BRANCH  20  21
HETATM   21  C   UNL     1       8.779 -11.409  -6.229  1.00  0.00    -0.000 C 
BRANCH  21  22
HETATM   22  C   UNL     1       9.737 -11.669  -5.061  1.00  0.00    -0.005 C 
HETATM   23  C   UNL     1       9.019 -12.350  -3.900  1.00  0.00     0.005 C 
ENDBRANCH  21  22
ENDBRANCH  20  21
ENDBRANCH  19  20
ENDBRANCH  18  19
ENDBRANCH  16  17
ENDBRANCH  15  16
ENDBRANCH  13  14
ENDBRANCH  12  13
ENDBRANCH  10  11
ENDBRANCH   9  10
ENDBRANCH   7   8
ENDBRANCH   6   7
ENDBRANCH   5   6
ENDBRANCH   3   5
ENDBRANCH   1   3
TORSDOF 15
ENDMDL
MODEL 7
REMARK VINA RESULT:      -4.7     12.493     14.164
REMARK  15 active torsions:
REMARK  status: ('A' for Active; 'I' for Inactive)
REMARK    1  A    between atoms: O_1  and  C_22 
REMARK    2  A    between atoms: C_3  and  C_4 
REMARK    3  A    between atoms: C_3  and  C_5 
REMARK    4  A    between atoms: C_4  and  C_6 
REMARK    5  A    between atoms: C_5  and  C_7 
REMARK    6  A    between atoms: C_9  and  C_10 
REMARK    7  A    between atoms: C_9  and  C_13 
REMARK    8  A    between atoms: C_10  and  C_14 
REMARK    9  A    between atoms: C_11  and  C_12 
REMARK   10  A    between atoms: C_12  and  C_16 
REMARK   11  A    between atoms: C_13  and  C_22 
REMARK   12  A    between atoms: C_15  and  C_17 
REMARK   13  A    between atoms: C_15  and  C_20 
REMARK   14  A    between atoms: C_18  and  C_19 
REMARK   15  A    between atoms: C_18  and  C_21 
ROOT
HETATM    1  O   UNL     1      12.940 -13.170  -5.126  1.00  0.00    -0.776 OA
HETATM    2  H   UNL     1      13.107 -12.742  -5.978  1.00  0.00     0.167 HD
ENDROOT
BRANCH   1   3
HETATM    3  C   UNL     1      11.716 -13.640  -4.804  1.00  0.00     0.139 C 
HETATM    4  O   UNL     1      11.595 -14.767  -4.346  1.00  0.00    -0.650 OA
BRANCH   3   5
HETATM    5  C   UNL     1      10.503 -12.779  -5.022  1.00  0.00     0.110 C 
BRANCH   5   6
HETATM    6  C   UNL     1       9.938 -12.915  -6.443  1.00  0.00     0.014 C 
BRANCH   6   7
HETATM    7  C   UNL     1      10.750 -13.884  -7.313  1.00  0.00     0.027 C 
BRANCH   7   8
HETATM    8  C   UNL     1       9.814 -14.768  -8.098  1.00  0.00    -0.030 C 
HETATM    9  C   UNL     1      10.135 -15.433  -9.224  1.00  0.00    -0.027 C 
BRANCH   9  10
HETATM   10  C   UNL     1      11.491 -15.431  -9.883  1.00  0.00     0.053 C 
BRANCH  10  11
HETATM   11  C   UNL     1      11.639 -14.259 -10.828  1.00  0.00    -0.027 C 
HETATM   12  C   UNL     1      11.467 -14.257 -12.166  1.00  0.00    -0.027 C 
BRANCH  12  13
HETATM   13  C   UNL     1      11.066 -15.424 -13.031  1.00  0.00     0.053 C 
BRANCH  13  14
HETATM   14  C   UNL     1      11.523 -15.196 -14.453  1.00  0.00    -0.027 C 
HETATM   15  C   UNL     1      10.708 -14.933 -15.495  1.00  0.00    -0.027 C 
BRANCH  15  16
HETATM   16  C   UNL     1       9.207 -14.844 -15.404  1.00  0.00     0.053 C 
BRANCH  16  17
HETATM   17  C   UNL     1       8.707 -13.488 -15.836  1.00  0.00    -0.027 C 
HETATM   18  C   UNL     1       8.639 -12.419 -15.023  1.00  0.00    -0.030 C 
BRANCH  18  19
HETATM   19  C   UNL     1       9.037 -12.418 -13.569  1.00  0.00     0.027 C 
BRANCH  19  20
HETATM   20  C   UNL     1       7.984 -13.169 -12.747  1.00  0.00     0.004 C 
BRANCH  20  21
HETATM   21  C   UNL     1       8.189 -12.944 -11.245  1.00  0.00    -0.000 C 
BRANCH  21  22
HETATM   22  C   UNL     1       8.494 -11.471 -10.949  1.00  0.00    -0.005 C 
HETATM   23  C   UNL     1       9.564 -11.335  -9.870  1.00  0.00     0.005 C 
ENDBRANCH  21  22
ENDBRANCH  20  21
ENDBRANCH  19  20
ENDBRANCH  18  19
ENDBRANCH  16  17
ENDBRANCH  15  16
ENDBRANCH  13  14
ENDBRANCH  12  13
ENDBRANCH  10  11
ENDBRANCH   9  10
ENDBRANCH   7   8
ENDBRANCH   6   7
ENDBRANCH   5   6
ENDBRANCH   3   5
ENDBRANCH   1   3
TORSDOF 15
ENDMDL
MODEL 8
REMARK VINA RESULT:      -4.7     13.039     16.447
REMARK  15 active torsions:
REMARK  status: ('A' for Active; 'I' for Inactive)
REMARK    1  A    between atoms: O_1  and  C_22 
REMARK    2  A    between atoms: C_3  and  C_4 
REMARK    3  A    between atoms: C_3  and  C_5 
REMARK    4  A    between atoms: C_4  and  C_6 
REMARK    5  A    between atoms: C_5  and  C_7 
REMARK    6  A    between atoms: C_9  and  C_10 
REMARK    7  A    between atoms: C_9  and  C_13 
REMARK    8  A    between atoms: C_10  and  C_14 
REMARK    9  A    between atoms: C_11  and  C_12 
REMARK   10  A    between atoms: C_12  and  C_16 
REMARK   11  A    between atoms: C_13  and  C_22 
REMARK   12  A    between atoms: C_15  and  C_17 
REMARK   13  A    between atoms: C_15  and  C_20 
REMARK   14  A    between atoms: C_18  and  C_19 
REMARK   15  A    between atoms: C_18  and  C_21 
ROOT
HETATM    1  O   UNL     1       7.320 -13.177 -20.271  1.00  0.00    -0.776 OA
HETATM    2  H   UNL     1       7.363 -14.073 -19.909  1.00  0.00     0.167 HD
ENDROOT
BRANCH   1   3
HETATM    3  C   UNL     1       8.418 -12.395 -20.347  1.00  0.00     0.139 C 
HETATM    4  O   UNL     1       8.865 -12.069 -21.437  1.00  0.00    -0.650 OA
BRANCH   3   5
HETATM    5  C   UNL     1       9.098 -11.937 -19.085  1.00  0.00     0.110 C 
BRANCH   5   6
HETATM    6  C   UNL     1      10.058 -12.994 -18.523  1.00  0.00     0.014 C 
BRANCH   6   7
HETATM    7  C   UNL     1       9.621 -13.520 -17.149  1.00  0.00     0.027 C 
BRANCH   7   8
HETATM    8  C   UNL     1       8.490 -12.676 -16.619  1.00  0.00    -0.030 C 
HETATM    9  C   UNL     1       8.446 -12.117 -15.395  1.00  0.00    -0.027 C 
BRANCH   9  10
HETATM   10  C   UNL     1       9.527 -12.216 -14.349  1.00  0.00     0.053 C 
BRANCH  10  11
HETATM   11  C   UNL     1       9.312 -13.413 -13.449  1.00  0.00    -0.027 C 
HETATM   12  C   UNL     1       8.705 -13.436 -12.245  1.00  0.00    -0.027 C 
BRANCH  12  13
HETATM   13  C   UNL     1       8.080 -12.270 -11.522  1.00  0.00     0.053 C 
BRANCH  13  14
HETATM   14  C   UNL     1       9.136 -11.512 -10.752  1.00  0.00    -0.027 C 
HETATM   15  C   UNL     1       9.582 -11.840  -9.523  1.00  0.00    -0.027 C 
BRANCH  15  16
HETATM   16  C   UNL     1       9.081 -13.010  -8.717  1.00  0.00     0.053 C 
BRANCH  16  17
HETATM   17  C   UNL     1      10.181 -13.617  -7.881  1.00  0.00    -0.027 C 
HETATM   18  C   UNL     1      11.163 -14.388  -8.380  1.00  0.00    -0.030 C 
BRANCH  18  19
HETATM   19  C   UNL     1      11.305 -14.767  -9.833  1.00  0.00     0.027 C 
BRANCH  19  20
HETATM   20  C   UNL     1      10.697 -16.154 -10.064  1.00  0.00     0.004 C 
BRANCH  20  21
HETATM   21  C   UNL     1      11.556 -17.250  -9.425  1.00  0.00    -0.000 C 
BRANCH  21  22
HETATM   22  C   UNL     1      12.424 -17.948 -10.479  1.00  0.00    -0.005 C 
HETATM   23  C   UNL     1      13.386 -18.939  -9.831  1.00  0.00     0.005 C 
ENDBRANCH  21  22
ENDBRANCH  20  21
ENDBRANCH  19  20
ENDBRANCH  18  19
ENDBRANCH  16  17
ENDBRANCH  15  16
ENDBRANCH  13  14
ENDBRANCH  12  13
ENDBRANCH  10  11
ENDBRANCH   9  10
ENDBRANCH   7   8
ENDBRANCH   6   7
ENDBRANCH   5   6
ENDBRANCH   3   5
ENDBRANCH   1   3
TORSDOF 15
ENDMDL
MODEL 9
REMARK VINA RESULT:      -4.7     12.786     14.128
REMARK  15 active torsions:
REMARK  status: ('A' for Active; 'I' for Inactive)
REMARK    1  A    between atoms: O_1  and  C_22 
REMARK    2  A    between atoms: C_3  and  C_4 
REMARK    3  A    between atoms: C_3  and  C_5 
REMARK    4  A    between atoms: C_4  and  C_6 
REMARK    5  A    between atoms: C_5  and  C_7 
REMARK    6  A    between atoms: C_9  and  C_10 
REMARK    7  A    between atoms: C_9  and  C_13 
REMARK    8  A    between atoms: C_10  and  C_14 
REMARK    9  A    between atoms: C_11  and  C_12 
REMARK   10  A    between atoms: C_12  and  C_16 
REMARK   11  A    between atoms: C_13  and  C_22 
REMARK   12  A    between atoms: C_15  and  C_17 
REMARK   13  A    between atoms: C_15  and  C_20 
REMARK   14  A    between atoms: C_18  and  C_19 
REMARK   15  A    between atoms: C_18  and  C_21 
ROOT
HETATM    1  O   UNL     1       7.221 -13.021 -10.460  1.00  0.00    -0.776 OA
HETATM    2  H   UNL     1       6.744 -13.135  -9.626  1.00  0.00     0.167 HD
ENDROOT
BRANCH   1   3
HETATM    3  C   UNL     1       8.421 -12.406 -10.506  1.00  0.00     0.139 C 
HETATM    4  O   UNL     1       8.954 -12.025  -9.474  1.00  0.00    -0.650 OA
BRANCH   3   5
HETATM    5  C   UNL     1       9.096 -12.180 -11.831  1.00  0.00     0.110 C 
BRANCH   5   6
HETATM    6  C   UNL     1       9.097 -13.440 -12.708  1.00  0.00     0.014 C 
BRANCH   6   7
HETATM    7  C   UNL     1       9.432 -13.140 -14.175  1.00  0.00     0.027 C 
BRANCH   7   8
HETATM    8  C   UNL     1      10.884 -12.753 -14.296  1.00  0.00    -0.030 C 
HETATM    9  C   UNL     1      11.779 -13.341 -15.113  1.00  0.00    -0.027 C 
BRANCH   9  10
HETATM   10  C   UNL     1      11.482 -14.471 -16.066  1.00  0.00     0.053 C 
BRANCH  10  11
HETATM   11  C   UNL     1      11.226 -15.763 -15.322  1.00  0.00    -0.027 C 
HETATM   12  C   UNL     1      10.262 -16.674 -15.567  1.00  0.00    -0.027 C 
BRANCH  12  13
HETATM   13  C   UNL     1       9.223 -16.625 -16.659  1.00  0.00     0.053 C 
BRANCH  13  14
HETATM   14  C   UNL     1       7.965 -15.965 -16.146  1.00  0.00    -0.027 C 
HETATM   15  C   UNL     1       7.328 -14.941 -16.750  1.00  0.00    -0.027 C 
BRANCH  15  16
HETATM   16  C   UNL     1       7.785 -14.284 -18.026  1.00  0.00     0.053 C 
BRANCH  16  17
HETATM   17  C   UNL     1       8.677 -13.100 -17.750  1.00  0.00    -0.027 C 
HETATM   18  C   UNL     1       9.273 -12.371 -18.709  1.00  0.00    -0.030 C 
BRANCH  18  19
HETATM   19  C   UNL     1       9.151 -12.632 -20.189  1.00  0.00     0.027 C 
BRANCH  19  20
HETATM   20  C   UNL     1      10.404 -13.359 -20.689  1.00  0.00     0.004 C 
BRANCH  20  21
HETATM   21  C   UNL     1      10.063 -14.760 -21.206  1.00  0.00    -0.000 C 
BRANCH  21  22
HETATM   22  C   UNL     1      10.270 -15.812 -20.109  1.00  0.00    -0.005 C 
HETATM   23  C   UNL     1      11.680 -15.737 -19.532  1.00  0.00     0.005 C 
ENDBRANCH  21  22
ENDBRANCH  20  21
ENDBRANCH  19  20
ENDBRANCH  18  19
ENDBRANCH  16  17
ENDBRANCH  15  16
ENDBRANCH  13  14
ENDBRANCH  12  13
ENDBRANCH  10  11
ENDBRANCH   9  10
ENDBRANCH   7   8
ENDBRANCH   6   7
ENDBRANCH   5   6
ENDBRANCH   3   5
ENDBRANCH   1   3
TORSDOF 15
ENDMDL
MODEL 10
REMARK VINA RESULT:      -4.7     12.800     14.464
REMARK  15 active torsions:
REMARK  status: ('A' for Active; 'I' for Inactive)
REMARK    1  A    between atoms: O_1  and  C_22 
REMARK    2  A    between atoms: C_3  and  C_4 
REMARK    3  A    between atoms: C_3  and  C_5 
REMARK    4  A    between atoms: C_4  and  C_6 
REMARK    5  A    between atoms: C_5  and  C_7 
REMARK    6  A    between atoms: C_9  and  C_10 
REMARK    7  A    between atoms: C_9  and  C_13 
REMARK    8  A    between atoms: C_10  and  C_14 
REMARK    9  A    between atoms: C_11  and  C_12 
REMARK   10  A    between atoms: C_12  and  C_16 
REMARK   11  A    between atoms: C_13  and  C_22 
REMARK   12  A    between atoms: C_15  and  C_17 
REMARK   13  A    between atoms: C_15  and  C_20 
REMARK   14  A    between atoms: C_18  and  C_19 
REMARK   15  A    between atoms: C_18  and  C_21 
ROOT
HETATM    1  O   UNL     1      13.263 -13.423  -4.990  1.00  0.00    -0.776 OA
HETATM    2  H   UNL     1      13.529 -13.486  -5.918  1.00  0.00     0.167 HD
ENDROOT
BRANCH   1   3
HETATM    3  C   UNL     1      11.968 -13.528  -4.622  1.00  0.00     0.139 C 
HETATM    4  O   UNL     1      11.680 -13.916  -3.499  1.00  0.00    -0.650 OA
BRANCH   3   5
HETATM    5  C   UNL     1      10.882 -13.178  -5.602  1.00  0.00     0.110 C 
BRANCH   5   6
HETATM    6  C   UNL     1      10.497 -14.365  -6.496  1.00  0.00     0.014 C 
BRANCH   6   7
HETATM    7  C   UNL     1       9.687 -13.939  -7.727  1.00  0.00     0.027 C 
BRANCH   7   8
HETATM    8  C   UNL     1      10.611 -13.361  -8.769  1.00  0.00    -0.030 C 
HETATM    9  C   UNL     1      10.225 -12.614  -9.821  1.00  0.00    -0.027 C 
BRANCH   9  10
HETATM   10  C   UNL     1       8.807 -12.203 -10.128  1.00  0.00     0.053 C 
BRANCH  10  11
HETATM   11  C   UNL     1       8.192 -13.101 -11.179  1.00  0.00    -0.027 C 
HETATM   12  C   UNL     1       8.383 -13.052 -12.513  1.00  0.00    -0.027 C 
BRANCH  12  13
HETATM   13  C   UNL     1       9.273 -12.099 -13.268  1.00  0.00     0.053 C 
BRANCH  13  14
HETATM   14  C   UNL     1       8.950 -12.147 -14.743  1.00  0.00    -0.027 C 
HETATM   15  C   UNL     1       9.697 -12.768 -15.679  1.00  0.00    -0.027 C 
BRANCH  15  16
HETATM   16  C   UNL     1      10.984 -13.498 -15.398  1.00  0.00     0.053 C 
BRANCH  16  17
HETATM   17  C   UNL     1      10.996 -14.864 -16.039  1.00  0.00    -0.027 C 
HETATM   18  C   UNL     1      10.533 -15.976 -15.443  1.00  0.00    -0.030 C 
BRANCH  18  19
HETATM   19  C   UNL     1       9.949 -16.028 -14.054  1.00  0.00     0.027 C 
BRANCH  19  20
HETATM   20  C   UNL     1      11.061 -16.313 -13.038  1.00  0.00     0.004 C 
BRANCH  20  21
HETATM   21  C   UNL     1      10.664 -15.844 -11.635  1.00  0.00    -0.000 C 
BRANCH  21  22
HETATM   22  C   UNL     1      11.435 -16.620 -10.561  1.00  0.00    -0.005 C 
HETATM   23  C   UNL     1      10.514 -17.047  -9.422  1.00  0.00     0.005 C 
ENDBRANCH  21  22
ENDBRANCH  20  21
ENDBRANCH  19  20
ENDBRANCH  18  19
ENDBRANCH  16  17
ENDBRANCH  15  16
ENDBRANCH  13  14
ENDBRANCH  12  13
ENDBRANCH  10  11
ENDBRANCH   9  10
ENDBRANCH   7   8
ENDBRANCH   6   7
ENDBRANCH   5   6
ENDBRANCH   3   5
ENDBRANCH   1   3
TORSDOF 15
ENDMDL
MODEL 11
REMARK VINA RESULT:      -4.7     13.223     15.302
REMARK  15 active torsions:
REMARK  status: ('A' for Active; 'I' for Inactive)
REMARK    1  A    between atoms: O_1  and  C_22 
REMARK    2  A    between atoms: C_3  and  C_4 
REMARK    3  A    between atoms: C_3  and  C_5 
REMARK    4  A    between atoms: C_4  and  C_6 
REMARK    5  A    between atoms: C_5  and  C_7 
REMARK    6  A    between atoms: C_9  and  C_10 
REMARK    7  A    between atoms: C_9  and  C_13 
REMARK    8  A    between atoms: C_10  and  C_14 
REMARK    9  A    between atoms: C_11  and  C_12 
REMARK   10  A    between atoms: C_12  and  C_16 
REMARK   11  A    between atoms: C_13  and  C_22 
REMARK   12  A    between atoms: C_15  and  C_17 
REMARK   13  A    between atoms: C_15  and  C_20 
REMARK   14  A    between atoms: C_18  and  C_19 
REMARK   15  A    between atoms: C_18  and  C_21 
ROOT
HETATM    1  O   UNL     1       6.182 -16.975  -4.702  1.00  0.00    -0.776 OA
HETATM    2  H   UNL     1       6.788 -17.602  -4.283  1.00  0.00     0.167 HD
ENDROOT
BRANCH   1   3
HETATM    3  C   UNL     1       6.254 -16.703  -6.022  1.00  0.00     0.139 C 
HETATM    4  O   UNL     1       5.237 -16.452  -6.653  1.00  0.00    -0.650 OA
BRANCH   3   5
HETATM    5  C   UNL     1       7.588 -16.721  -6.718  1.00  0.00     0.110 C 
BRANCH   5   6
HETATM    6  C   UNL     1       8.701 -16.098  -5.863  1.00  0.00     0.014 C 
BRANCH   6   7
HETATM    7  C   UNL     1      10.021 -15.948  -6.629  1.00  0.00     0.027 C 
BRANCH   7   8
HETATM    8  C   UNL     1      11.181 -16.111  -5.678  1.00  0.00    -0.030 C 
HETATM    9  C   UNL     1      11.853 -15.101  -5.093  1.00  0.00    -0.027 C 
BRANCH   9  10
HETATM   10  C   UNL     1      11.550 -13.634  -5.265  1.00  0.00     0.053 C 
BRANCH  10  11
HETATM   11  C   UNL     1      10.577 -13.149  -4.212  1.00  0.00    -0.027 C 
HETATM   12  C   UNL     1       9.585 -12.248  -4.365  1.00  0.00    -0.027 C 
BRANCH  12  13
HETATM   13  C   UNL     1       9.200 -11.529  -5.633  1.00  0.00     0.053 C 
BRANCH  13  14
HETATM   14  C   UNL     1       8.175 -12.335  -6.394  1.00  0.00    -0.027 C 
HETATM   15  C   UNL     1       8.349 -12.834  -7.636  1.00  0.00    -0.027 C 
BRANCH  15  16
HETATM   16  C   UNL     1       9.593 -12.647  -8.464  1.00  0.00     0.053 C 
BRANCH  16  17
HETATM   17  C   UNL     1       9.401 -11.585  -9.518  1.00  0.00    -0.027 C 
HETATM   18  C   UNL     1       8.750 -11.788 -10.677  1.00  0.00    -0.030 C 
BRANCH  18  19
HETATM   19  C   UNL     1       8.131 -13.097 -11.097  1.00  0.00     0.027 C 
BRANCH  19  20
HETATM   20  C   UNL     1       8.754 -13.561 -12.418  1.00  0.00     0.004 C 
BRANCH  20  21
HETATM   21  C   UNL     1      10.201 -14.025 -12.217  1.00  0.00    -0.000 C 
BRANCH  21  22
HETATM   22  C   UNL     1      10.250 -15.318 -11.395  1.00  0.00    -0.005 C 
HETATM   23  C   UNL     1      11.334 -15.249 -10.323  1.00  0.00     0.005 C 
ENDBRANCH  21  22
ENDBRANCH  20  21
ENDBRANCH  19  20
ENDBRANCH  18  19
ENDBRANCH  16  17
ENDBRANCH  15  16
ENDBRANCH  13  14
ENDBRANCH  12  13
ENDBRANCH  10  11
ENDBRANCH   9  10
ENDBRANCH   7   8
ENDBRANCH   6   7
ENDBRANCH   5   6
ENDBRANCH   3   5
ENDBRANCH   1   3
TORSDOF 15
ENDMDL
MODEL 12
REMARK VINA RESULT:      -4.6     39.854     41.421
REMARK  15 active torsions:
REMARK  status: ('A' for Active; 'I' for Inactive)
REMARK    1  A    between atoms: O_1  and  C_22 
REMARK    2  A    between atoms: C_3  and  C_4 
REMARK    3  A    between atoms: C_3  and  C_5 
REMARK    4  A    between atoms: C_4  and  C_6 
REMARK    5  A    between atoms: C_5  and  C_7 
REMARK    6  A    between atoms: C_9  and  C_10 
REMARK    7  A    between atoms: C_9  and  C_13 
REMARK    8  A    between atoms: C_10  and  C_14 
REMARK    9  A    between atoms: C_11  and  C_12 
REMARK   10  A    between atoms: C_12  and  C_16 
REMARK   11  A    between atoms: C_13  and  C_22 
REMARK   12  A    between atoms: C_15  and  C_17 
REMARK   13  A    between atoms: C_15  and  C_20 
REMARK   14  A    between atoms: C_18  and  C_19 
REMARK   15  A    between atoms: C_18  and  C_21 
ROOT
HETATM    1  O   UNL     1      53.273 -19.890 -15.908  1.00  0.00    -0.776 OA
HETATM    2  H   UNL     1      54.148 -19.598 -16.199  1.00  0.00     0.167 HD
ENDROOT
BRANCH   1   3
HETATM    3  C   UNL     1      52.344 -20.316 -16.791  1.00  0.00     0.139 C 
HETATM    4  O   UNL     1      52.677 -20.636 -17.923  1.00  0.00    -0.650 OA
BRANCH   3   5
HETATM    5  C   UNL     1      50.899 -20.385 -16.381  1.00  0.00     0.110 C 
BRANCH   5   6
HETATM    6  C   UNL     1      50.114 -19.132 -16.794  1.00  0.00     0.014 C 
BRANCH   6   7
HETATM    7  C   UNL     1      50.015 -18.098 -15.665  1.00  0.00     0.027 C 
BRANCH   7   8
HETATM    8  C   UNL     1      49.353 -16.845 -16.181  1.00  0.00    -0.030 C 
HETATM    9  C   UNL     1      48.253 -16.275 -15.655  1.00  0.00    -0.027 C 
BRANCH   9  10
HETATM   10  C   UNL     1      47.504 -16.773 -14.445  1.00  0.00     0.053 C 
BRANCH  10  11
HETATM   11  C   UNL     1      46.420 -17.753 -14.836  1.00  0.00    -0.027 C 
HETATM   12  C   UNL     1      45.363 -17.529 -15.643  1.00  0.00    -0.027 C 
BRANCH  12  13
HETATM   13  C   UNL     1      45.027 -16.248 -16.362  1.00  0.00     0.053 C 
BRANCH  13  14
HETATM   14  C   UNL     1      43.530 -16.043 -16.381  1.00  0.00    -0.027 C 
HETATM   15  C   UNL     1      42.680 -16.633 -17.246  1.00  0.00    -0.027 C 
BRANCH  15  16
HETATM   16  C   UNL     1      43.097 -17.577 -18.343  1.00  0.00     0.053 C 
BRANCH  16  17
HETATM   17  C   UNL     1      43.780 -16.846 -19.472  1.00  0.00    -0.027 C 
HETATM   18  C   UNL     1      44.991 -17.176 -19.955  1.00  0.00    -0.030 C 
BRANCH  18  19
HETATM   19  C   UNL     1      45.843 -18.307 -19.438  1.00  0.00     0.027 C 
BRANCH  19  20
HETATM   20  C   UNL     1      47.217 -17.769 -19.024  1.00  0.00     0.004 C 
BRANCH  20  21
HETATM   21  C   UNL     1      47.628 -16.572 -19.890  1.00  0.00    -0.000 C 
BRANCH  21  22
HETATM   22  C   UNL     1      49.109 -16.660 -20.275  1.00  0.00    -0.005 C 
HETATM   23  C   UNL     1      49.593 -18.107 -20.277  1.00  0.00     0.005 C 
ENDBRANCH  21  22
ENDBRANCH  20  21
ENDBRANCH  19  20
ENDBRANCH  18  19
ENDBRANCH  16  17
ENDBRANCH  15  16
ENDBRANCH  13  14
ENDBRANCH  12  13
ENDBRANCH  10  11
ENDBRANCH   9  10
ENDBRANCH   7   8
ENDBRANCH   6   7
ENDBRANCH   5   6
ENDBRANCH   3   5
ENDBRANCH   1   3
TORSDOF 15
ENDMDL
MODEL 13
REMARK VINA RESULT:      -4.6     27.838     29.085
REMARK  15 active torsions:
REMARK  status: ('A' for Active; 'I' for Inactive)
REMARK    1  A    between atoms: O_1  and  C_22 
REMARK    2  A    between atoms: C_3  and  C_4 
REMARK    3  A    between atoms: C_3  and  C_5 
REMARK    4  A    between atoms: C_4  and  C_6 
REMARK    5  A    between atoms: C_5  and  C_7 
REMARK    6  A    between atoms: C_9  and  C_10 
REMARK    7  A    between atoms: C_9  and  C_13 
REMARK    8  A    between atoms: C_10  and  C_14 
REMARK    9  A    between atoms: C_11  and  C_12 
REMARK   10  A    between atoms: C_12  and  C_16 
REMARK   11  A    between atoms: C_13  and  C_22 
REMARK   12  A    between atoms: C_15  and  C_17 
REMARK   13  A    between atoms: C_15  and  C_20 
REMARK   14  A    between atoms: C_18  and  C_19 
REMARK   15  A    between atoms: C_18  and  C_21 
ROOT
HETATM    1  O   UNL     1      35.054  -8.193 -12.748  1.00  0.00    -0.776 OA
HETATM    2  H   UNL     1      35.043  -7.236 -12.890  1.00  0.00     0.167 HD
ENDROOT
BRANCH   1   3
HETATM    3  C   UNL     1      34.106  -8.806 -12.007  1.00  0.00     0.139 C 
HETATM    4  O   UNL     1      32.924  -8.648 -12.274  1.00  0.00    -0.650 OA
BRANCH   3   5
HETATM    5  C   UNL     1      34.509  -9.672 -10.846  1.00  0.00     0.110 C 
BRANCH   5   6
HETATM    6  C   UNL     1      36.025  -9.912 -10.795  1.00  0.00     0.014 C 
BRANCH   6   7
HETATM    7  C   UNL     1      36.408 -11.081  -9.877  1.00  0.00     0.027 C 
BRANCH   7   8
HETATM    8  C   UNL     1      37.023 -10.549  -8.607  1.00  0.00    -0.030 C 
HETATM    9  C   UNL     1      38.238 -10.883  -8.133  1.00  0.00    -0.027 C 
BRANCH   9  10
HETATM   10  C   UNL     1      39.207 -11.827  -8.800  1.00  0.00     0.053 C 
BRANCH  10  11
HETATM   11  C   UNL     1      40.325 -11.072  -9.483  1.00  0.00    -0.027 C 
HETATM   12  C   UNL     1      40.645 -11.088 -10.793  1.00  0.00    -0.027 C 
BRANCH  12  13
HETATM   13  C   UNL     1      39.945 -11.850 -11.889  1.00  0.00     0.053 C 
BRANCH  13  14
HETATM   14  C   UNL     1      39.041 -10.923 -12.668  1.00  0.00    -0.027 C 
HETATM   15  C   UNL     1      39.256 -10.519 -13.936  1.00  0.00    -0.027 C 
BRANCH  15  16
HETATM   16  C   UNL     1      40.445 -10.919 -14.770  1.00  0.00     0.053 C 
BRANCH  16  17
HETATM   17  C   UNL     1      40.127 -12.098 -15.656  1.00  0.00    -0.027 C 
HETATM   18  C   UNL     1      39.935 -12.007 -16.984  1.00  0.00    -0.030 C 
BRANCH  18  19
HETATM   19  C   UNL     1      39.997 -10.726 -17.777  1.00  0.00     0.027 C 
BRANCH  19  20
HETATM   20  C   UNL     1      38.690 -10.540 -18.556  1.00  0.00     0.004 C 
BRANCH  20  21
HETATM   21  C   UNL     1      37.616 -11.523 -18.080  1.00  0.00    -0.000 C 
BRANCH  21  22
HETATM   22  C   UNL     1      36.607 -10.826 -17.159  1.00  0.00    -0.005 C 
HETATM   23  C   UNL     1      36.331 -11.661 -15.912  1.00  0.00     0.005 C 
ENDBRANCH  21  22
ENDBRANCH  20  21
ENDBRANCH  19  20
ENDBRANCH  18  19
ENDBRANCH  16  17
ENDBRANCH  15  16
ENDBRANCH  13  14
ENDBRANCH  12  13
ENDBRANCH  10  11
ENDBRANCH   9  10
ENDBRANCH   7   8
ENDBRANCH   6   7
ENDBRANCH   5   6
ENDBRANCH   3   5
ENDBRANCH   1   3
TORSDOF 15
ENDMDL
MODEL 14
REMARK VINA RESULT:      -4.6     12.686     16.648
REMARK  15 active torsions:
REMARK  status: ('A' for Active; 'I' for Inactive)
REMARK    1  A    between atoms: O_1  and  C_22 
REMARK    2  A    between atoms: C_3  and  C_4 
REMARK    3  A    between atoms: C_3  and  C_5 
REMARK    4  A    between atoms: C_4  and  C_6 
REMARK    5  A    between atoms: C_5  and  C_7 
REMARK    6  A    between atoms: C_9  and  C_10 
REMARK    7  A    between atoms: C_9  and  C_13 
REMARK    8  A    between atoms: C_10  and  C_14 
REMARK    9  A    between atoms: C_11  and  C_12 
REMARK   10  A    between atoms: C_12  and  C_16 
REMARK   11  A    between atoms: C_13  and  C_22 
REMARK   12  A    between atoms: C_15  and  C_17 
REMARK   13  A    between atoms: C_15  and  C_20 
REMARK   14  A    between atoms: C_18  and  C_19 
REMARK   15  A    between atoms: C_18  and  C_21 
ROOT
HETATM    1  O   UNL     1      11.063 -13.578 -16.940  1.00  0.00    -0.776 OA
HETATM    2  H   UNL     1      11.756 -14.036 -17.437  1.00  0.00     0.167 HD
ENDROOT
BRANCH   1   3
HETATM    3  C   UNL     1       9.918 -13.180 -17.535  1.00  0.00     0.139 C 
HETATM    4  O   UNL     1       9.542 -13.722 -18.563  1.00  0.00    -0.650 OA
BRANCH   3   5
HETATM    5  C   UNL     1       9.114 -12.060 -16.934  1.00  0.00     0.110 C 
BRANCH   5   6
HETATM    6  C   UNL     1       8.312 -12.511 -15.705  1.00  0.00     0.014 C 
BRANCH   6   7
HETATM    7  C   UNL     1       9.101 -12.366 -14.398  1.00  0.00     0.027 C 
BRANCH   7   8
HETATM    8  C   UNL     1       8.354 -13.042 -13.276  1.00  0.00    -0.030 C 
HETATM    9  C   UNL     1       8.919 -13.564 -12.170  1.00  0.00    -0.027 C 
BRANCH   9  10
HETATM   10  C   UNL     1      10.392 -13.543 -11.848  1.00  0.00     0.053 C 
BRANCH  10  11
HETATM   11  C   UNL     1      10.972 -14.940 -11.841  1.00  0.00    -0.027 C 
HETATM   12  C   UNL     1      10.844 -15.877 -10.879  1.00  0.00    -0.027 C 
BRANCH  12  13
HETATM   13  C   UNL     1      10.073 -15.753  -9.589  1.00  0.00     0.053 C 
BRANCH  13  14
HETATM   14  C   UNL     1      10.929 -15.090  -8.537  1.00  0.00    -0.027 C 
HETATM   15  C   UNL     1      10.717 -13.857  -8.032  1.00  0.00    -0.027 C 
BRANCH  15  16
HETATM   16  C   UNL     1       9.598 -12.942  -8.455  1.00  0.00     0.053 C 
BRANCH  16  17
HETATM   17  C   UNL     1       8.371 -13.138  -7.600  1.00  0.00    -0.027 C 
HETATM   18  C   UNL     1       8.179 -12.535  -6.414  1.00  0.00    -0.030 C 
BRANCH  18  19
HETATM   19  C   UNL     1       9.157 -11.591  -5.761  1.00  0.00     0.027 C 
BRANCH  19  20
HETATM   20  C   UNL     1       9.510 -12.104  -4.361  1.00  0.00     0.004 C 
BRANCH  20  21
HETATM   21  C   UNL     1       9.840 -13.600  -4.384  1.00  0.00    -0.000 C 
BRANCH  21  22
HETATM   22  C   UNL     1      11.245 -13.859  -3.828  1.00  0.00    -0.005 C 
HETATM   23  C   UNL     1      12.318 -13.477  -4.844  1.00  0.00     0.005 C 
ENDBRANCH  21  22
ENDBRANCH  20  21
ENDBRANCH  19  20
ENDBRANCH  18  19
ENDBRANCH  16  17
ENDBRANCH  15  16
ENDBRANCH  13  14
ENDBRANCH  12  13
ENDBRANCH  10  11
ENDBRANCH   9  10
ENDBRANCH   7   8
ENDBRANCH   6   7
ENDBRANCH   5   6
ENDBRANCH   3   5
ENDBRANCH   1   3
TORSDOF 15
ENDMDL
MODEL 15
REMARK VINA RESULT:      -4.5     13.576     16.745
REMARK  15 active torsions:
REMARK  status: ('A' for Active; 'I' for Inactive)
REMARK    1  A    between atoms: O_1  and  C_22 
REMARK    2  A    between atoms: C_3  and  C_4 
REMARK    3  A    between atoms: C_3  and  C_5 
REMARK    4  A    between atoms: C_4  and  C_6 
REMARK    5  A    between atoms: C_5  and  C_7 
REMARK    6  A    between atoms: C_9  and  C_10 
REMARK    7  A    between atoms: C_9  and  C_13 
REMARK    8  A    between atoms: C_10  and  C_14 
REMARK    9  A    between atoms: C_11  and  C_12 
REMARK   10  A    between atoms: C_12  and  C_16 
REMARK   11  A    between atoms: C_13  and  C_22 
REMARK   12  A    between atoms: C_15  and  C_17 
REMARK   13  A    between atoms: C_15  and  C_20 
REMARK   14  A    between atoms: C_18  and  C_19 
REMARK   15  A    between atoms: C_18  and  C_21 
ROOT
HETATM    1  O   UNL     1       8.067 -14.447 -10.569  1.00  0.00    -0.776 OA
HETATM    2  H   UNL     1       7.519 -14.689  -9.809  1.00  0.00     0.167 HD
ENDROOT
BRANCH   1   3
HETATM    3  C   UNL     1       7.918 -13.259 -11.193  1.00  0.00     0.139 C 
HETATM    4  O   UNL     1       6.931 -12.572 -10.976  1.00  0.00    -0.650 OA
BRANCH   3   5
HETATM    5  C   UNL     1       8.966 -12.790 -12.164  1.00  0.00     0.110 C 
BRANCH   5   6
HETATM    6  C   UNL     1       8.620 -13.151 -13.616  1.00  0.00     0.014 C 
BRANCH   6   7
HETATM    7  C   UNL     1       9.820 -13.013 -14.562  1.00  0.00     0.027 C 
BRANCH   7   8
HETATM    8  C   UNL     1      11.071 -13.490 -13.869  1.00  0.00    -0.030 C 
HETATM    9  C   UNL     1      11.531 -14.756 -13.881  1.00  0.00    -0.027 C 
BRANCH   9  10
HETATM   10  C   UNL     1      10.890 -15.911 -14.608  1.00  0.00     0.053 C 
BRANCH  10  11
HETATM   11  C   UNL     1      11.867 -17.052 -14.792  1.00  0.00    -0.027 C 
HETATM   12  C   UNL     1      11.999 -18.152 -14.024  1.00  0.00    -0.027 C 
BRANCH  12  13
HETATM   13  C   UNL     1      11.185 -18.511 -12.807  1.00  0.00     0.053 C 
BRANCH  13  14
HETATM   14  C   UNL     1      12.043 -18.425 -11.567  1.00  0.00    -0.027 C 
HETATM   15  C   UNL     1      11.949 -17.463 -10.626  1.00  0.00    -0.027 C 
BRANCH  15  16
HETATM   16  C   UNL     1      10.980 -16.311 -10.677  1.00  0.00     0.053 C 
BRANCH  16  17
HETATM   17  C   UNL     1      11.606 -15.038 -10.166  1.00  0.00    -0.027 C 
HETATM   18  C   UNL     1      11.325 -14.491  -8.970  1.00  0.00    -0.030 C 
BRANCH  18  19
HETATM   19  C   UNL     1      10.342 -15.056  -7.976  1.00  0.00     0.027 C 
BRANCH  19  20
HETATM   20  C   UNL     1      10.927 -14.962  -6.563  1.00  0.00     0.004 C 
BRANCH  20  21
HETATM   21  C   UNL     1      10.192 -13.908  -5.728  1.00  0.00    -0.000 C 
BRANCH  21  22
HETATM   22  C   UNL     1      11.187 -13.006  -4.988  1.00  0.00    -0.005 C 
HETATM   23  C   UNL     1      12.588 -13.610  -4.994  1.00  0.00     0.005 C 
ENDBRANCH  21  22
ENDBRANCH  20  21
ENDBRANCH  19  20
ENDBRANCH  18  19
ENDBRANCH  16  17
ENDBRANCH  15  16
ENDBRANCH  13  14
ENDBRANCH  12  13
ENDBRANCH  10  11
ENDBRANCH   9  10
ENDBRANCH   7   8
ENDBRANCH   6   7
ENDBRANCH   5   6
ENDBRANCH   3   5
ENDBRANCH   1   3
TORSDOF 15
ENDMDL
MODEL 16
REMARK VINA RESULT:      -4.5     14.683     16.828
REMARK  15 active torsions:
REMARK  status: ('A' for Active; 'I' for Inactive)
REMARK    1  A    between atoms: O_1  and  C_22 
REMARK    2  A    between atoms: C_3  and  C_4 
REMARK    3  A    between atoms: C_3  and  C_5 
REMARK    4  A    between atoms: C_4  and  C_6 
REMARK    5  A    between atoms: C_5  and  C_7 
REMARK    6  A    between atoms: C_9  and  C_10 
REMARK    7  A    between atoms: C_9  and  C_13 
REMARK    8  A    between atoms: C_10  and  C_14 
REMARK    9  A    between atoms: C_11  and  C_12 
REMARK   10  A    between atoms: C_12  and  C_16 
REMARK   11  A    between atoms: C_13  and  C_22 
REMARK   12  A    between atoms: C_15  and  C_17 
REMARK   13  A    between atoms: C_15  and  C_20 
REMARK   14  A    between atoms: C_18  and  C_19 
REMARK   15  A    between atoms: C_18  and  C_21 
ROOT
HETATM    1  O   UNL     1       3.220 -19.257  -7.441  1.00  0.00    -0.776 OA
HETATM    2  H   UNL     1       2.965 -19.364  -6.514  1.00  0.00     0.167 HD
ENDROOT
BRANCH   1   3
HETATM    3  C   UNL     1       4.093 -18.301  -7.824  1.00  0.00     0.139 C 
HETATM    4  O   UNL     1       3.893 -17.664  -8.849  1.00  0.00    -0.650 OA
BRANCH   3   5
HETATM    5  C   UNL     1       5.317 -18.030  -6.994  1.00  0.00     0.110 C 
BRANCH   5   6
HETATM    6  C   UNL     1       5.371 -16.581  -6.489  1.00  0.00     0.014 C 
BRANCH   6   7
HETATM    7  C   UNL     1       6.802 -16.030  -6.425  1.00  0.00     0.027 C 
BRANCH   7   8
HETATM    8  C   UNL     1       7.312 -15.775  -7.821  1.00  0.00    -0.030 C 
HETATM    9  C   UNL     1       7.858 -14.622  -8.249  1.00  0.00    -0.027 C 
BRANCH   9  10
HETATM   10  C   UNL     1       8.078 -13.392  -7.405  1.00  0.00     0.053 C 
BRANCH  10  11
HETATM   11  C   UNL     1       9.552 -13.086  -7.256  1.00  0.00    -0.027 C 
HETATM   12  C   UNL     1      10.424 -13.648  -6.393  1.00  0.00    -0.027 C 
BRANCH  12  13
HETATM   13  C   UNL     1      10.133 -14.732  -5.386  1.00  0.00     0.053 C 
BRANCH  13  14
HETATM   14  C   UNL     1      11.291 -15.698  -5.318  1.00  0.00    -0.027 C 
HETATM   15  C   UNL     1      11.432 -16.794  -6.092  1.00  0.00    -0.027 C 
BRANCH  15  16
HETATM   16  C   UNL     1      10.442 -17.232  -7.139  1.00  0.00     0.053 C 
BRANCH  16  17
HETATM   17  C   UNL     1      11.135 -17.724  -8.385  1.00  0.00    -0.027 C 
HETATM   18  C   UNL     1      11.508 -16.925  -9.400  1.00  0.00    -0.030 C 
BRANCH  18  19
HETATM   19  C   UNL     1      11.280 -15.435  -9.451  1.00  0.00     0.027 C 
BRANCH  19  20
HETATM   20  C   UNL     1      10.559 -15.069 -10.753  1.00  0.00     0.004 C 
BRANCH  20  21
HETATM   21  C   UNL     1      10.632 -13.563 -11.022  1.00  0.00    -0.000 C 
BRANCH  21  22
HETATM   22  C   UNL     1       9.239 -12.991 -11.313  1.00  0.00    -0.005 C 
HETATM   23  C   UNL     1       9.058 -11.623 -10.664  1.00  0.00     0.005 C 
ENDBRANCH  21  22
ENDBRANCH  20  21
ENDBRANCH  19  20
ENDBRANCH  18  19
ENDBRANCH  16  17
ENDBRANCH  15  16
ENDBRANCH  13  14
ENDBRANCH  12  13
ENDBRANCH  10  11
ENDBRANCH   9  10
ENDBRANCH   7   8
ENDBRANCH   6   7
ENDBRANCH   5   6
ENDBRANCH   3   5
ENDBRANCH   1   3
TORSDOF 15
ENDMDL
MODEL 17
REMARK VINA RESULT:      -4.5     12.882     14.176
REMARK  15 active torsions:
REMARK  status: ('A' for Active; 'I' for Inactive)
REMARK    1  A    between atoms: O_1  and  C_22 
REMARK    2  A    between atoms: C_3  and  C_4 
REMARK    3  A    between atoms: C_3  and  C_5 
REMARK    4  A    between atoms: C_4  and  C_6 
REMARK    5  A    between atoms: C_5  and  C_7 
REMARK    6  A    between atoms: C_9  and  C_10 
REMARK    7  A    between atoms: C_9  and  C_13 
REMARK    8  A    between atoms: C_10  and  C_14 
REMARK    9  A    between atoms: C_11  and  C_12 
REMARK   10  A    between atoms: C_12  and  C_16 
REMARK   11  A    between atoms: C_13  and  C_22 
REMARK   12  A    between atoms: C_15  and  C_17 
REMARK   13  A    between atoms: C_15  and  C_20 
REMARK   14  A    between atoms: C_18  and  C_19 
REMARK   15  A    between atoms: C_18  and  C_21 
ROOT
HETATM    1  O   UNL     1      11.249 -14.741  -4.186  1.00  0.00    -0.776 OA
HETATM    2  H   UNL     1      11.839 -14.955  -3.450  1.00  0.00     0.167 HD
ENDROOT
BRANCH   1   3
HETATM    3  C   UNL     1       9.942 -14.469  -3.984  1.00  0.00     0.139 C 
HETATM    4  O   UNL     1       9.119 -15.373  -4.002  1.00  0.00    -0.650 OA
BRANCH   3   5
HETATM    5  C   UNL     1       9.501 -13.051  -3.750  1.00  0.00     0.110 C 
BRANCH   5   6
HETATM    6  C   UNL     1       9.794 -12.142  -4.952  1.00  0.00     0.014 C 
BRANCH   6   7
HETATM    7  C   UNL     1       8.582 -11.976  -5.878  1.00  0.00     0.027 C 
BRANCH   7   8
HETATM    8  C   UNL     1       9.044 -11.899  -7.311  1.00  0.00    -0.030 C 
HETATM    9  C   UNL     1       9.160 -12.948  -8.148  1.00  0.00    -0.027 C 
BRANCH   9  10
HETATM   10  C   UNL     1       8.825 -14.378  -7.807  1.00  0.00     0.053 C 
BRANCH  10  11
HETATM   11  C   UNL     1      10.076 -15.185  -7.537  1.00  0.00    -0.027 C 
HETATM   12  C   UNL     1      10.845 -15.832  -8.436  1.00  0.00    -0.027 C 
BRANCH  12  13
HETATM   13  C   UNL     1      10.646 -15.886  -9.929  1.00  0.00     0.053 C 
BRANCH  13  14
HETATM   14  C   UNL     1      11.430 -14.779 -10.595  1.00  0.00    -0.027 C 
HETATM   15  C   UNL     1      10.894 -13.797 -11.348  1.00  0.00    -0.027 C 
BRANCH  15  16
HETATM   16  C   UNL     1       9.426 -13.661 -11.656  1.00  0.00     0.053 C 
BRANCH  16  17
HETATM   17  C   UNL     1       9.149 -12.443 -12.502  1.00  0.00    -0.027 C 
HETATM   18  C   UNL     1       9.155 -12.447 -13.846  1.00  0.00    -0.030 C 
BRANCH  18  19
HETATM   19  C   UNL     1       9.450 -13.653 -14.702  1.00  0.00     0.027 C 
BRANCH  19  20
HETATM   20  C   UNL     1      10.943 -13.690 -15.043  1.00  0.00     0.004 C 
BRANCH  20  21
HETATM   21  C   UNL     1      11.482 -15.124 -15.021  1.00  0.00    -0.000 C 
BRANCH  21  22
HETATM   22  C   UNL     1      10.513 -16.061 -14.289  1.00  0.00    -0.005 C 
HETATM   23  C   UNL     1      11.266 -17.138 -13.515  1.00  0.00     0.005 C 
ENDBRANCH  21  22
ENDBRANCH  20  21
ENDBRANCH  19  20
ENDBRANCH  18  19
ENDBRANCH  16  17
ENDBRANCH  15  16
ENDBRANCH  13  14
ENDBRANCH  12  13
ENDBRANCH  10  11
ENDBRANCH   9  10
ENDBRANCH   7   8
ENDBRANCH   6   7
ENDBRANCH   5   6
ENDBRANCH   3   5
ENDBRANCH   1   3
TORSDOF 15
ENDMDL
MODEL 18
REMARK VINA RESULT:      -4.5     15.121     16.884
REMARK  15 active torsions:
REMARK  status: ('A' for Active; 'I' for Inactive)
REMARK    1  A    between atoms: O_1  and  C_22 
REMARK    2  A    between atoms: C_3  and  C_4 
REMARK    3  A    between atoms: C_3  and  C_5 
REMARK    4  A    between atoms: C_4  and  C_6 
REMARK    5  A    between atoms: C_5  and  C_7 
REMARK    6  A    between atoms: C_9  and  C_10 
REMARK    7  A    between atoms: C_9  and  C_13 
REMARK    8  A    between atoms: C_10  and  C_14 
REMARK    9  A    between atoms: C_11  and  C_12 
REMARK   10  A    between atoms: C_12  and  C_16 
REMARK   11  A    between atoms: C_13  and  C_22 
REMARK   12  A    between atoms: C_15  and  C_17 
REMARK   13  A    between atoms: C_15  and  C_20 
REMARK   14  A    between atoms: C_18  and  C_19 
REMARK   15  A    between atoms: C_18  and  C_21 
ROOT
HETATM    1  O   UNL     1      13.137 -13.229  -4.979  1.00  0.00    -0.776 OA
HETATM    2  H   UNL     1      13.570 -13.150  -5.841  1.00  0.00     0.167 HD
ENDROOT
BRANCH   1   3
HETATM    3  C   UNL     1      11.836 -13.571  -4.875  1.00  0.00     0.139 C 
HETATM    4  O   UNL     1      11.418 -14.088  -3.849  1.00  0.00    -0.650 OA
BRANCH   3   5
HETATM    5  C   UNL     1      10.903 -13.324  -6.029  1.00  0.00     0.110 C 
BRANCH   5   6
HETATM    6  C   UNL     1      10.677 -14.583  -6.877  1.00  0.00     0.014 C 
BRANCH   6   7
HETATM    7  C   UNL     1      10.364 -14.261  -8.344  1.00  0.00     0.027 C 
BRANCH   7   8
HETATM    8  C   UNL     1      11.631 -14.321  -9.159  1.00  0.00    -0.030 C 
HETATM    9  C   UNL     1      11.687 -14.412 -10.501  1.00  0.00    -0.027 C 
BRANCH   9  10
HETATM   10  C   UNL     1      10.497 -14.444 -11.426  1.00  0.00     0.053 C 
BRANCH  10  11
HETATM   11  C   UNL     1      10.053 -15.864 -11.699  1.00  0.00    -0.027 C 
HETATM   12  C   UNL     1      10.394 -16.643 -12.746  1.00  0.00    -0.027 C 
BRANCH  12  13
HETATM   13  C   UNL     1      11.318 -16.283 -13.882  1.00  0.00     0.053 C 
BRANCH  13  14
HETATM   14  C   UNL     1      11.107 -17.231 -15.040  1.00  0.00    -0.027 C 
HETATM   15  C   UNL     1      11.954 -18.218 -15.395  1.00  0.00    -0.027 C 
BRANCH  15  16
HETATM   16  C   UNL     1      13.256 -18.517 -14.699  1.00  0.00     0.053 C 
BRANCH  16  17
HETATM   17  C   UNL     1      13.329 -19.959 -14.260  1.00  0.00    -0.027 C 
HETATM   18  C   UNL     1      12.922 -20.397 -13.056  1.00  0.00    -0.030 C 
BRANCH  18  19
HETATM   19  C   UNL     1      12.348 -19.521 -11.971  1.00  0.00     0.027 C 
BRANCH  19  20
HETATM   20  C   UNL     1      13.485 -18.926 -11.134  1.00  0.00     0.004 C 
BRANCH  20  21
HETATM   21  C   UNL     1      12.940 -18.118  -9.952  1.00  0.00    -0.000 C 
BRANCH  21  22
HETATM   22  C   UNL     1      11.835 -18.893  -9.224  1.00  0.00    -0.005 C 
HETATM   23  C   UNL     1      10.745 -17.953  -8.717  1.00  0.00     0.005 C 
ENDBRANCH  21  22
ENDBRANCH  20  21
ENDBRANCH  19  20
ENDBRANCH  18  19
ENDBRANCH  16  17
ENDBRANCH  15  16
ENDBRANCH  13  14
ENDBRANCH  12  13
ENDBRANCH  10  11
ENDBRANCH   9  10
ENDBRANCH   7   8
ENDBRANCH   6   7
ENDBRANCH   5   6
ENDBRANCH   3   5
ENDBRANCH   1   3
TORSDOF 15
ENDMDL
MODEL 19
REMARK VINA RESULT:      -4.5     13.854     16.518
REMARK  15 active torsions:
REMARK  status: ('A' for Active; 'I' for Inactive)
REMARK    1  A    between atoms: O_1  and  C_22 
REMARK    2  A    between atoms: C_3  and  C_4 
REMARK    3  A    between atoms: C_3  and  C_5 
REMARK    4  A    between atoms: C_4  and  C_6 
REMARK    5  A    between atoms: C_5  and  C_7 
REMARK    6  A    between atoms: C_9  and  C_10 
REMARK    7  A    between atoms: C_9  and  C_13 
REMARK    8  A    between atoms: C_10  and  C_14 
REMARK    9  A    between atoms: C_11  and  C_12 
REMARK   10  A    between atoms: C_12  and  C_16 
REMARK   11  A    between atoms: C_13  and  C_22 
REMARK   12  A    between atoms: C_15  and  C_17 
REMARK   13  A    between atoms: C_15  and  C_20 
REMARK   14  A    between atoms: C_18  and  C_19 
REMARK   15  A    between atoms: C_18  and  C_21 
ROOT
HETATM    1  O   UNL     1       5.823 -17.936 -13.309  1.00  0.00    -0.776 OA
HETATM    2  H   UNL     1       5.758 -18.442 -14.131  1.00  0.00     0.167 HD
ENDROOT
BRANCH   1   3
HETATM    3  C   UNL     1       4.721 -17.522 -12.649  1.00  0.00     0.139 C 
HETATM    4  O   UNL     1       3.617 -17.654 -13.156  1.00  0.00    -0.650 OA
BRANCH   3   5
HETATM    5  C   UNL     1       4.857 -16.888 -11.292  1.00  0.00     0.110 C 
BRANCH   5   6
HETATM    6  C   UNL     1       6.258 -17.081 -10.695  1.00  0.00     0.014 C 
BRANCH   6   7
HETATM    7  C   UNL     1       7.094 -15.795 -10.720  1.00  0.00     0.027 C 
BRANCH   7   8
HETATM    8  C   UNL     1       8.557 -16.137 -10.590  1.00  0.00    -0.030 C 
HETATM    9  C   UNL     1       9.401 -16.345 -11.618  1.00  0.00    -0.027 C 
BRANCH   9  10
HETATM   10  C   UNL     1       9.039 -16.250 -13.079  1.00  0.00     0.053 C 
BRANCH  10  11
HETATM   11  C   UNL     1      10.276 -16.210 -13.949  1.00  0.00    -0.027 C 
HETATM   12  C   UNL     1      11.157 -15.197 -14.077  1.00  0.00    -0.027 C 
BRANCH  12  13
HETATM   13  C   UNL     1      11.123 -13.869 -13.364  1.00  0.00     0.053 C 
BRANCH  13  14
HETATM   14  C   UNL     1      10.213 -12.912 -14.097  1.00  0.00    -0.027 C 
HETATM   15  C   UNL     1       9.071 -12.396 -13.599  1.00  0.00    -0.027 C 
BRANCH  15  16
HETATM   16  C   UNL     1       8.516 -12.710 -12.234  1.00  0.00     0.053 C 
BRANCH  16  17
HETATM   17  C   UNL     1       8.808 -11.604 -11.251  1.00  0.00    -0.027 C 
HETATM   18  C   UNL     1       9.642 -11.732 -10.204  1.00  0.00    -0.030 C 
BRANCH  18  19
HETATM   19  C   UNL     1      10.393 -12.991  -9.852  1.00  0.00     0.027 C 
BRANCH  19  20
HETATM   20  C   UNL     1      10.019 -13.434  -8.433  1.00  0.00     0.004 C 
BRANCH  20  21
HETATM   21  C   UNL     1      11.037 -14.436  -7.879  1.00  0.00    -0.000 C 
BRANCH  21  22
HETATM   22  C   UNL     1      10.343 -15.501  -7.021  1.00  0.00    -0.005 C 
HETATM   23  C   UNL     1       8.827 -15.326  -7.044  1.00  0.00     0.005 C 
ENDBRANCH  21  22
ENDBRANCH  20  21
ENDBRANCH  19  20
ENDBRANCH  18  19
ENDBRANCH  16  17
ENDBRANCH  15  16
ENDBRANCH  13  14
ENDBRANCH  12  13
ENDBRANCH  10  11
ENDBRANCH   9  10
ENDBRANCH   7   8
ENDBRANCH   6   7
ENDBRANCH   5   6
ENDBRANCH   3   5
ENDBRANCH   1   3
TORSDOF 15
ENDMDL
MODEL 20
REMARK VINA RESULT:      -4.5     13.618     15.625
REMARK  15 active torsions:
REMARK  status: ('A' for Active; 'I' for Inactive)
REMARK    1  A    between atoms: O_1  and  C_22 
REMARK    2  A    between atoms: C_3  and  C_4 
REMARK    3  A    between atoms: C_3  and  C_5 
REMARK    4  A    between atoms: C_4  and  C_6 
REMARK    5  A    between atoms: C_5  and  C_7 
REMARK    6  A    between atoms: C_9  and  C_10 
REMARK    7  A    between atoms: C_9  and  C_13 
REMARK    8  A    between atoms: C_10  and  C_14 
REMARK    9  A    between atoms: C_11  and  C_12 
REMARK   10  A    between atoms: C_12  and  C_16 
REMARK   11  A    between atoms: C_13  and  C_22 
REMARK   12  A    between atoms: C_15  and  C_17 
REMARK   13  A    between atoms: C_15  and  C_20 
REMARK   14  A    between atoms: C_18  and  C_19 
REMARK   15  A    between atoms: C_18  and  C_21 
ROOT
HETATM    1  O   UNL     1       7.339 -12.805 -10.263  1.00  0.00    -0.776 OA
HETATM    2  H   UNL     1       6.626 -12.403  -9.748  1.00  0.00     0.167 HD
ENDROOT
BRANCH   1   3
HETATM    3  C   UNL     1       8.506 -12.158 -10.471  1.00  0.00     0.139 C 
HETATM    4  O   UNL     1       9.282 -11.981  -9.544  1.00  0.00    -0.650 OA
BRANCH   3   5
HETATM    5  C   UNL     1       8.841 -11.646 -11.845  1.00  0.00     0.110 C 
BRANCH   5   6
HETATM    6  C   UNL     1       9.371 -12.753 -12.767  1.00  0.00     0.014 C 
BRANCH   6   7
HETATM    7  C   UNL     1       8.431 -13.043 -13.945  1.00  0.00     0.027 C 
BRANCH   7   8
HETATM    8  C   UNL     1       8.798 -12.165 -15.115  1.00  0.00    -0.030 C 
HETATM    9  C   UNL     1       9.376 -12.591 -16.254  1.00  0.00    -0.027 C 
BRANCH   9  10
HETATM   10  C   UNL     1       9.737 -14.021 -16.569  1.00  0.00     0.053 C 
BRANCH  10  11
HETATM   11  C   UNL     1      11.138 -14.349 -16.101  1.00  0.00    -0.027 C 
HETATM   12  C   UNL     1      11.495 -15.184 -15.104  1.00  0.00    -0.027 C 
BRANCH  12  13
HETATM   13  C   UNL     1      10.576 -16.004 -14.234  1.00  0.00     0.053 C 
BRANCH  13  14
HETATM   14  C   UNL     1      11.047 -15.961 -12.800  1.00  0.00    -0.027 C 
HETATM   15  C   UNL     1      10.346 -16.415 -11.741  1.00  0.00    -0.027 C 
BRANCH  15  16
HETATM   16  C   UNL     1       8.971 -17.023 -11.825  1.00  0.00     0.053 C 
BRANCH  16  17
HETATM   17  C   UNL     1       7.894 -15.975 -11.689  1.00  0.00    -0.027 C 
HETATM   18  C   UNL     1       6.581 -16.226 -11.832  1.00  0.00    -0.030 C 
BRANCH  18  19
HETATM   19  C   UNL     1       5.994 -17.576 -12.159  1.00  0.00     0.027 C 
BRANCH  19  20
HETATM   20  C   UNL     1       5.469 -17.575 -13.598  1.00  0.00     0.004 C 
BRANCH  20  21
HETATM   21  C   UNL     1       6.355 -18.428 -14.513  1.00  0.00    -0.000 C 
BRANCH  21  22
HETATM   22  C   UNL     1       7.447 -17.574 -15.167  1.00  0.00    -0.005 C 
HETATM   23  C   UNL     1       6.927 -16.182 -15.511  1.00  0.00     0.005 C 
ENDBRANCH  21  22
ENDBRANCH  20  21
ENDBRANCH  19  20
ENDBRANCH  18  19
ENDBRANCH  16  17
ENDBRANCH  15  16
ENDBRANCH  13  14
ENDBRANCH  12  13
ENDBRANCH  10  11
ENDBRANCH   9  10
ENDBRANCH   7   8
ENDBRANCH   6   7
ENDBRANCH   5   6
ENDBRANCH   3   5
ENDBRANCH   1   3
TORSDOF 15
ENDMDL
