MODEL 1
REMARK VINA RESULT:      -6.7      0.000      0.000
REMARK  15 active torsions:
REMARK  status: ('A' for Active; 'I' for Inactive)
REMARK    1  A    between atoms: O_1  and  C_18 
REMARK    2  A    between atoms: C_3  and  C_4 
REMARK    3  A    between atoms: C_3  and  C_5 
REMARK    4  A    between atoms: C_4  and  C_6 
REMARK    5  A    between atoms: C_5  and  C_7 
REMARK    6  A    between atoms: C_6  and  C_8 
REMARK    7  A    between atoms: C_7  and  C_9 
REMARK    8  A    between atoms: C_8  and  C_10 
REMARK    9  A    between atoms: C_9  and  C_11 
REMARK   10  A    between atoms: C_10  and  C_12 
REMARK   11  A    between atoms: C_11  and  C_13 
REMARK   12  A    between atoms: C_12  and  C_14 
REMARK   13  A    between atoms: C_13  and  C_15 
REMARK   14  A    between atoms: C_14  and  C_16 
REMARK   15  A    between atoms: C_16  and  C_18 
ROOT
HETATM    1  O   UNL     1       2.640  10.567 -21.681  1.00  0.00    -0.776 OA
HETATM    2  H   UNL     1       2.821  11.415 -21.253  1.00  0.00     0.167 HD
ENDROOT
BRANCH   1   3
HETATM    3  C   UNL     1       3.534   9.555 -21.647  1.00  0.00     0.139 C 
HETATM    4  O   UNL     1       4.455   9.532 -22.450  1.00  0.00    -0.650 OA
BRANCH   3   5
HETATM    5  C   UNL     1       3.373   8.474 -20.610  1.00  0.00     0.110 C 
BRANCH   5   6
HETATM    6  C   UNL     1       4.181   8.740 -19.331  1.00  0.00     0.010 C 
BRANCH   6   7
HETATM    7  C   UNL     1       3.325   9.451 -18.277  1.00  0.00     0.001 C 
BRANCH   7   8
HETATM    8  C   UNL     1       4.055   9.521 -16.930  1.00  0.00     0.000 C 
BRANCH   8   9
HETATM    9  C   UNL     1       3.063   9.460 -15.762  1.00  0.00     0.000 C 
BRANCH   9  10
HETATM   10  C   UNL     1       3.711   8.831 -14.524  1.00  0.00     0.000 C 
BRANCH  10  11
HETATM   11  C   UNL     1       3.341   9.608 -13.255  1.00  0.00     0.000 C 
BRANCH  11  12
HETATM   12  C   UNL     1       3.520   8.740 -12.004  1.00  0.00     0.000 C 
BRANCH  12  13
HETATM   13  C   UNL     1       2.985   9.453 -10.757  1.00  0.00     0.000 C 
BRANCH  13  14
HETATM   14  C   UNL     1       3.390   8.706  -9.480  1.00  0.00     0.000 C 
BRANCH  14  15
HETATM   15  C   UNL     1       4.782   9.141  -9.005  1.00  0.00     0.000 C 
BRANCH  15  16
HETATM   16  C   UNL     1       4.724   9.711  -7.583  1.00  0.00     0.000 C 
BRANCH  16  17
HETATM   17  C   UNL     1       3.276   9.983  -7.158  1.00  0.00    -0.000 C 
BRANCH  17  18
HETATM   18  C   UNL     1       2.892   9.136  -5.940  1.00  0.00    -0.005 C 
HETATM   19  C   UNL     1       4.129   8.703  -5.157  1.00  0.00     0.005 C 
ENDBRANCH  17  18
ENDBRANCH  16  17
ENDBRANCH  15  16
ENDBRANCH  14  15
ENDBRANCH  13  14
ENDBRANCH  12  13
ENDBRANCH  11  12
ENDBRANCH  10  11
ENDBRANCH   9  10
ENDBRANCH   8   9
ENDBRANCH   7   8
ENDBRANCH   6   7
ENDBRANCH   5   6
ENDBRANCH   3   5
ENDBRANCH   1   3
TORSDOF 15
ENDMDL
MODEL 2
REMARK VINA RESULT:      -6.1      5.001     11.958
REMARK  15 active torsions:
REMARK  status: ('A' for Active; 'I' for Inactive)
REMARK    1  A    between atoms: O_1  and  C_18 
REMARK    2  A    between atoms: C_3  and  C_4 
REMARK    3  A    between atoms: C_3  and  C_5 
REMARK    4  A    between atoms: C_4  and  C_6 
REMARK    5  A    between atoms: C_5  and  C_7 
REMARK    6  A    between atoms: C_6  and  C_8 
REMARK    7  A    between atoms: C_7  and  C_9 
REMARK    8  A    between atoms: C_8  and  C_10 
REMARK    9  A    between atoms: C_9  and  C_11 
REMARK   10  A    between atoms: C_10  and  C_12 
REMARK   11  A    between atoms: C_11  and  C_13 
REMARK   12  A    between atoms: C_12  and  C_14 
REMARK   13  A    between atoms: C_13  and  C_15 
REMARK   14  A    between atoms: C_14  and  C_16 
REMARK   15  A    between atoms: C_16  and  C_18 
ROOT
HETATM    1  O   UNL     1       5.358   9.539  -7.994  1.00  0.00    -0.776 OA
HETATM    2  H   UNL     1       5.791   9.202  -7.197  1.00  0.00     0.167 HD
ENDROOT
BRANCH   1   3
HETATM    3  C   UNL     1       4.016   9.497  -8.135  1.00  0.00     0.139 C 
HETATM    4  O   UNL     1       3.298   9.935  -7.248  1.00  0.00    -0.650 OA
BRANCH   3   5
HETATM    5  C   UNL     1       3.432   8.909  -9.394  1.00  0.00     0.110 C 
BRANCH   5   6
HETATM    6  C   UNL     1       4.177   9.346 -10.665  1.00  0.00     0.010 C 
BRANCH   6   7
HETATM    7  C   UNL     1       3.290   9.182 -11.905  1.00  0.00     0.001 C 
BRANCH   7   8
HETATM    8  C   UNL     1       4.060   9.539 -13.182  1.00  0.00     0.000 C 
BRANCH   8   9
HETATM    9  C   UNL     1       3.690   8.593 -14.331  1.00  0.00     0.000 C 
BRANCH   9  10
HETATM   10  C   UNL     1       3.039   9.360 -15.488  1.00  0.00     0.000 C 
BRANCH  10  11
HETATM   11  C   UNL     1       3.995   9.470 -16.682  1.00  0.00     0.000 C 
BRANCH  11  12
HETATM   12  C   UNL     1       3.223   9.506 -18.005  1.00  0.00     0.000 C 
BRANCH  12  13
HETATM   13  C   UNL     1       4.130   9.132 -19.183  1.00  0.00     0.000 C 
BRANCH  13  14
HETATM   14  C   UNL     1       3.302   8.715 -20.404  1.00  0.00     0.000 C 
BRANCH  14  15
HETATM   15  C   UNL     1       3.335   9.799 -21.488  1.00  0.00     0.000 C 
BRANCH  15  16
HETATM   16  C   UNL     1       4.236   9.382 -22.656  1.00  0.00     0.000 C 
BRANCH  16  17
HETATM   17  C   UNL     1       3.405   8.837 -23.824  1.00  0.00    -0.000 C 
BRANCH  17  18
HETATM   18  C   UNL     1       4.159   8.986 -25.151  1.00  0.00    -0.005 C 
HETATM   19  C   UNL     1       4.499   7.622 -25.747  1.00  0.00     0.005 C 
ENDBRANCH  17  18
ENDBRANCH  16  17
ENDBRANCH  15  16
ENDBRANCH  14  15
ENDBRANCH  13  14
ENDBRANCH  12  13
ENDBRANCH  11  12
ENDBRANCH  10  11
ENDBRANCH   9  10
ENDBRANCH   8   9
ENDBRANCH   7   8
ENDBRANCH   6   7
ENDBRANCH   5   6
ENDBRANCH   3   5
ENDBRANCH   1   3
TORSDOF 15
ENDMDL
MODEL 3
REMARK VINA RESULT:      -5.5      5.301     10.711
REMARK  15 active torsions:
REMARK  status: ('A' for Active; 'I' for Inactive)
REMARK    1  A    between atoms: O_1  and  C_18 
REMARK    2  A    between atoms: C_3  and  C_4 
REMARK    3  A    between atoms: C_3  and  C_5 
REMARK    4  A    between atoms: C_4  and  C_6 
REMARK    5  A    between atoms: C_5  and  C_7 
REMARK    6  A    between atoms: C_6  and  C_8 
REMARK    7  A    between atoms: C_7  and  C_9 
REMARK    8  A    between atoms: C_8  and  C_10 
REMARK    9  A    between atoms: C_9  and  C_11 
REMARK   10  A    between atoms: C_10  and  C_12 
REMARK   11  A    between atoms: C_11  and  C_13 
REMARK   12  A    between atoms: C_12  and  C_14 
REMARK   13  A    between atoms: C_13  and  C_15 
REMARK   14  A    between atoms: C_14  and  C_16 
REMARK   15  A    between atoms: C_16  and  C_18 
ROOT
HETATM    1  O   UNL     1       7.181  11.718  -7.283  1.00  0.00    -0.776 OA
HETATM    2  H   UNL     1       7.553  12.088  -8.095  1.00  0.00     0.167 HD
ENDROOT
BRANCH   1   3
HETATM    3  C   UNL     1       6.924  10.398  -7.163  1.00  0.00     0.139 C 
HETATM    4  O   UNL     1       7.558   9.726  -6.362  1.00  0.00    -0.650 OA
BRANCH   3   5
HETATM    5  C   UNL     1       5.852   9.782  -8.025  1.00  0.00     0.110 C 
BRANCH   5   6
HETATM    6  C   UNL     1       4.524   9.577  -7.281  1.00  0.00     0.010 C 
BRANCH   6   7
HETATM    7  C   UNL     1       3.350   9.499  -8.264  1.00  0.00     0.001 C 
BRANCH   7   8
HETATM    8  C   UNL     1       3.639   8.498  -9.389  1.00  0.00     0.000 C 
BRANCH   8   9
HETATM    9  C   UNL     1       2.793   8.805 -10.630  1.00  0.00     0.000 C 
BRANCH   9  10
HETATM   10  C   UNL     1       3.346  10.018 -11.386  1.00  0.00     0.000 C 
BRANCH  10  11
HETATM   11  C   UNL     1       4.224   9.579 -12.564  1.00  0.00     0.000 C 
BRANCH  11  12
HETATM   12  C   UNL     1       3.422   9.556 -13.871  1.00  0.00     0.000 C 
BRANCH  12  13
HETATM   13  C   UNL     1       3.932   8.457 -14.810  1.00  0.00     0.000 C 
BRANCH  13  14
HETATM   14  C   UNL     1       3.067   8.369 -16.074  1.00  0.00     0.000 C 
BRANCH  14  15
HETATM   15  C   UNL     1       3.074   9.697 -16.839  1.00  0.00     0.000 C 
BRANCH  15  16
HETATM   16  C   UNL     1       4.284   9.785 -17.777  1.00  0.00     0.000 C 
BRANCH  16  17
HETATM   17  C   UNL     1       4.135   8.819 -18.959  1.00  0.00    -0.000 C 
BRANCH  17  18
HETATM   18  C   UNL     1       3.074   9.318 -19.947  1.00  0.00    -0.005 C 
HETATM   19  C   UNL     1       3.307   8.745 -21.342  1.00  0.00     0.005 C 
ENDBRANCH  17  18
ENDBRANCH  16  17
ENDBRANCH  15  16
ENDBRANCH  14  15
ENDBRANCH  13  14
ENDBRANCH  12  13
ENDBRANCH  11  12
ENDBRANCH  10  11
ENDBRANCH   9  10
ENDBRANCH   8   9
ENDBRANCH   7   8
ENDBRANCH   6   7
ENDBRANCH   5   6
ENDBRANCH   3   5
ENDBRANCH   1   3
TORSDOF 15
ENDMDL
MODEL 4
REMARK VINA RESULT:      -5.5      7.359     12.916
REMARK  15 active torsions:
REMARK  status: ('A' for Active; 'I' for Inactive)
REMARK    1  A    between atoms: O_1  and  C_18 
REMARK    2  A    between atoms: C_3  and  C_4 
REMARK    3  A    between atoms: C_3  and  C_5 
REMARK    4  A    between atoms: C_4  and  C_6 
REMARK    5  A    between atoms: C_5  and  C_7 
REMARK    6  A    between atoms: C_6  and  C_8 
REMARK    7  A    between atoms: C_7  and  C_9 
REMARK    8  A    between atoms: C_8  and  C_10 
REMARK    9  A    between atoms: C_9  and  C_11 
REMARK   10  A    between atoms: C_10  and  C_12 
REMARK   11  A    between atoms: C_11  and  C_13 
REMARK   12  A    between atoms: C_12  and  C_14 
REMARK   13  A    between atoms: C_13  and  C_15 
REMARK   14  A    between atoms: C_14  and  C_16 
REMARK   15  A    between atoms: C_16  and  C_18 
ROOT
HETATM    1  O   UNL     1       5.436  12.664  -1.385  1.00  0.00    -0.776 OA
HETATM    2  H   UNL     1       6.166  12.130  -1.042  1.00  0.00     0.167 HD
ENDROOT
BRANCH   1   3
HETATM    3  C   UNL     1       4.163  12.456  -0.986  1.00  0.00     0.139 C 
HETATM    4  O   UNL     1       3.633  13.244  -0.216  1.00  0.00    -0.650 OA
BRANCH   3   5
HETATM    5  C   UNL     1       3.423  11.250  -1.502  1.00  0.00     0.110 C 
BRANCH   5   6
HETATM    6  C   UNL     1       4.146   9.926  -1.208  1.00  0.00     0.010 C 
BRANCH   6   7
HETATM    7  C   UNL     1       4.619   9.258  -2.504  1.00  0.00     0.001 C 
BRANCH   7   8
HETATM    8  C   UNL     1       3.509   9.266  -3.563  1.00  0.00     0.000 C 
BRANCH   8   9
HETATM    9  C   UNL     1       4.095   9.160  -4.976  1.00  0.00     0.000 C 
BRANCH   9  10
HETATM   10  C   UNL     1       2.984   9.118  -6.031  1.00  0.00     0.000 C 
BRANCH  10  11
HETATM   11  C   UNL     1       3.343   9.986  -7.243  1.00  0.00     0.000 C 
BRANCH  11  12
HETATM   12  C   UNL     1       4.746   9.652  -7.763  1.00  0.00     0.000 C 
BRANCH  12  13
HETATM   13  C   UNL     1       4.702   9.227  -9.235  1.00  0.00     0.000 C 
BRANCH  13  14
HETATM   14  C   UNL     1       3.302   8.733  -9.622  1.00  0.00     0.000 C 
BRANCH  14  15
HETATM   15  C   UNL     1       2.806   9.427 -10.896  1.00  0.00     0.000 C 
BRANCH  15  16
HETATM   16  C   UNL     1       3.919   9.509 -11.947  1.00  0.00     0.000 C 
BRANCH  16  17
HETATM   17  C   UNL     1       3.334   9.635 -13.359  1.00  0.00    -0.000 C 
BRANCH  17  18
HETATM   18  C   UNL     1       4.022   8.667 -14.328  1.00  0.00    -0.005 C 
HETATM   19  C   UNL     1       3.379   8.720 -15.710  1.00  0.00     0.005 C 
ENDBRANCH  17  18
ENDBRANCH  16  17
ENDBRANCH  15  16
ENDBRANCH  14  15
ENDBRANCH  13  14
ENDBRANCH  12  13
ENDBRANCH  11  12
ENDBRANCH  10  11
ENDBRANCH   9  10
ENDBRANCH   8   9
ENDBRANCH   7   8
ENDBRANCH   6   7
ENDBRANCH   5   6
ENDBRANCH   3   5
ENDBRANCH   1   3
TORSDOF 15
ENDMDL
MODEL 5
REMARK VINA RESULT:      -5.4      4.671     12.201
REMARK  15 active torsions:
REMARK  status: ('A' for Active; 'I' for Inactive)
REMARK    1  A    between atoms: O_1  and  C_18 
REMARK    2  A    between atoms: C_3  and  C_4 
REMARK    3  A    between atoms: C_3  and  C_5 
REMARK    4  A    between atoms: C_4  and  C_6 
REMARK    5  A    between atoms: C_5  and  C_7 
REMARK    6  A    between atoms: C_6  and  C_8 
REMARK    7  A    between atoms: C_7  and  C_9 
REMARK    8  A    between atoms: C_8  and  C_10 
REMARK    9  A    between atoms: C_9  and  C_11 
REMARK   10  A    between atoms: C_10  and  C_12 
REMARK   11  A    between atoms: C_11  and  C_13 
REMARK   12  A    between atoms: C_12  and  C_14 
REMARK   13  A    between atoms: C_13  and  C_15 
REMARK   14  A    between atoms: C_14  and  C_16 
REMARK   15  A    between atoms: C_16  and  C_18 
ROOT
HETATM    1  O   UNL     1       5.413   9.120 -10.223  1.00  0.00    -0.776 OA
HETATM    2  H   UNL     1       5.990   9.033  -9.451  1.00  0.00     0.167 HD
ENDROOT
BRANCH   1   3
HETATM    3  C   UNL     1       4.072   9.012 -10.116  1.00  0.00     0.139 C 
HETATM    4  O   UNL     1       3.556   8.930  -9.010  1.00  0.00    -0.650 OA
BRANCH   3   5
HETATM    5  C   UNL     1       3.238   8.995 -11.370  1.00  0.00     0.110 C 
BRANCH   5   6
HETATM    6  C   UNL     1       4.015   9.445 -12.617  1.00  0.00     0.010 C 
BRANCH   6   7
HETATM    7  C   UNL     1       3.153   9.314 -13.878  1.00  0.00     0.001 C 
BRANCH   7   8
HETATM    8  C   UNL     1       4.006   8.914 -15.088  1.00  0.00     0.000 C 
BRANCH   8   9
HETATM    9  C   UNL     1       3.275   9.217 -16.402  1.00  0.00     0.000 C 
BRANCH   9  10
HETATM   10  C   UNL     1       4.195   9.944 -17.389  1.00  0.00     0.000 C 
BRANCH  10  11
HETATM   11  C   UNL     1       4.337   9.151 -18.694  1.00  0.00     0.000 C 
BRANCH  11  12
HETATM   12  C   UNL     1       3.106   9.335 -19.588  1.00  0.00     0.000 C 
BRANCH  12  13
HETATM   13  C   UNL     1       3.248   8.542 -20.892  1.00  0.00     0.000 C 
BRANCH  13  14
HETATM   14  C   UNL     1       3.189   9.471 -22.110  1.00  0.00     0.000 C 
BRANCH  14  15
HETATM   15  C   UNL     1       4.414   9.274 -23.012  1.00  0.00     0.000 C 
BRANCH  15  16
HETATM   16  C   UNL     1       4.014   8.652 -24.355  1.00  0.00     0.000 C 
BRANCH  16  17
HETATM   17  C   UNL     1       3.045   9.564 -25.117  1.00  0.00    -0.000 C 
BRANCH  17  18
HETATM   18  C   UNL     1       2.084   8.743 -25.984  1.00  0.00    -0.005 C 
HETATM   19  C   UNL     1       2.247   9.085 -27.463  1.00  0.00     0.005 C 
ENDBRANCH  17  18
ENDBRANCH  16  17
ENDBRANCH  15  16
ENDBRANCH  14  15
ENDBRANCH  13  14
ENDBRANCH  12  13
ENDBRANCH  11  12
ENDBRANCH  10  11
ENDBRANCH   9  10
ENDBRANCH   8   9
ENDBRANCH   7   8
ENDBRANCH   6   7
ENDBRANCH   5   6
ENDBRANCH   3   5
ENDBRANCH   1   3
TORSDOF 15
ENDMDL
MODEL 6
REMARK VINA RESULT:      -5.0      1.030      2.049
REMARK  15 active torsions:
REMARK  status: ('A' for Active; 'I' for Inactive)
REMARK    1  A    between atoms: O_1  and  C_18 
REMARK    2  A    between atoms: C_3  and  C_4 
REMARK    3  A    between atoms: C_3  and  C_5 
REMARK    4  A    between atoms: C_4  and  C_6 
REMARK    5  A    between atoms: C_5  and  C_7 
REMARK    6  A    between atoms: C_6  and  C_8 
REMARK    7  A    between atoms: C_7  and  C_9 
REMARK    8  A    between atoms: C_8  and  C_10 
REMARK    9  A    between atoms: C_9  and  C_11 
REMARK   10  A    between atoms: C_10  and  C_12 
REMARK   11  A    between atoms: C_11  and  C_13 
REMARK   12  A    between atoms: C_12  and  C_14 
REMARK   13  A    between atoms: C_13  and  C_15 
REMARK   14  A    between atoms: C_14  and  C_16 
REMARK   15  A    between atoms: C_16  and  C_18 
ROOT
HETATM    1  O   UNL     1       2.810   9.344 -21.631  1.00  0.00    -0.776 OA
HETATM    2  H   UNL     1       2.925  10.014 -22.320  1.00  0.00     0.167 HD
ENDROOT
BRANCH   1   3
HETATM    3  C   UNL     1       2.689   9.684 -20.331  1.00  0.00     0.139 C 
HETATM    4  O   UNL     1       1.880  10.540 -20.000  1.00  0.00    -0.650 OA
BRANCH   3   5
HETATM    5  C   UNL     1       3.558   8.996 -19.311  1.00  0.00     0.110 C 
BRANCH   5   6
HETATM    6  C   UNL     1       3.465   9.627 -17.914  1.00  0.00     0.010 C 
BRANCH   6   7
HETATM    7  C   UNL     1       3.538   8.555 -16.820  1.00  0.00     0.001 C 
BRANCH   7   8
HETATM    8  C   UNL     1       2.869   9.041 -15.528  1.00  0.00     0.000 C 
BRANCH   8   9
HETATM    9  C   UNL     1       3.696   8.646 -14.299  1.00  0.00     0.000 C 
BRANCH   9  10
HETATM   10  C   UNL     1       3.499   9.651 -13.158  1.00  0.00     0.000 C 
BRANCH  10  11
HETATM   11  C   UNL     1       3.169   8.933 -11.843  1.00  0.00     0.000 C 
BRANCH  11  12
HETATM   12  C   UNL     1       3.939   9.550 -10.670  1.00  0.00     0.000 C 
BRANCH  12  13
HETATM   13  C   UNL     1       3.994   8.587  -9.480  1.00  0.00     0.000 C 
BRANCH  13  14
HETATM   14  C   UNL     1       4.520   9.293  -8.224  1.00  0.00     0.000 C 
BRANCH  14  15
HETATM   15  C   UNL     1       3.365   9.776  -7.339  1.00  0.00     0.000 C 
BRANCH  15  16
HETATM   16  C   UNL     1       3.375   9.062  -5.983  1.00  0.00     0.000 C 
BRANCH  16  17
HETATM   17  C   UNL     1       4.781   9.066  -5.369  1.00  0.00    -0.000 C 
BRANCH  17  18
HETATM   18  C   UNL     1       4.713   9.148  -3.840  1.00  0.00    -0.005 C 
HETATM   19  C   UNL     1       3.323   9.569  -3.372  1.00  0.00     0.005 C 
ENDBRANCH  17  18
ENDBRANCH  16  17
ENDBRANCH  15  16
ENDBRANCH  14  15
ENDBRANCH  13  14
ENDBRANCH  12  13
ENDBRANCH  11  12
ENDBRANCH  10  11
ENDBRANCH   9  10
ENDBRANCH   8   9
ENDBRANCH   7   8
ENDBRANCH   6   7
ENDBRANCH   5   6
ENDBRANCH   3   5
ENDBRANCH   1   3
TORSDOF 15
ENDMDL
MODEL 7
REMARK VINA RESULT:      -4.7     43.429     44.999
REMARK  15 active torsions:
REMARK  status: ('A' for Active; 'I' for Inactive)
REMARK    1  A    between atoms: O_1  and  C_18 
REMARK    2  A    between atoms: C_3  and  C_4 
REMARK    3  A    between atoms: C_3  and  C_5 
REMARK    4  A    between atoms: C_4  and  C_6 
REMARK    5  A    between atoms: C_5  and  C_7 
REMARK    6  A    between atoms: C_6  and  C_8 
REMARK    7  A    between atoms: C_7  and  C_9 
REMARK    8  A    between atoms: C_8  and  C_10 
REMARK    9  A    between atoms: C_9  and  C_11 
REMARK   10  A    between atoms: C_10  and  C_12 
REMARK   11  A    between atoms: C_11  and  C_13 
REMARK   12  A    between atoms: C_12  and  C_14 
REMARK   13  A    between atoms: C_13  and  C_15 
REMARK   14  A    between atoms: C_14  and  C_16 
REMARK   15  A    between atoms: C_16  and  C_18 
ROOT
HETATM    1  O   UNL     1      41.125 -10.478  -6.813  1.00  0.00    -0.776 OA
HETATM    2  H   UNL     1      41.069  -9.705  -6.234  1.00  0.00     0.167 HD
ENDROOT
BRANCH   1   3
HETATM    3  C   UNL     1      40.321 -11.549  -6.637  1.00  0.00     0.139 C 
HETATM    4  O   UNL     1      40.082 -11.948  -5.506  1.00  0.00    -0.650 OA
BRANCH   3   5
HETATM    5  C   UNL     1      39.735 -12.230  -7.847  1.00  0.00     0.110 C 
BRANCH   5   6
HETATM    6  C   UNL     1      39.526 -13.739  -7.647  1.00  0.00     0.010 C 
BRANCH   6   7
HETATM    7  C   UNL     1      40.856 -14.495  -7.745  1.00  0.00     0.001 C 
BRANCH   7   8
HETATM    8  C   UNL     1      41.130 -15.294  -6.464  1.00  0.00     0.000 C 
BRANCH   8   9
HETATM    9  C   UNL     1      41.621 -16.709  -6.792  1.00  0.00     0.000 C 
BRANCH   9  10
HETATM   10  C   UNL     1      42.151 -16.788  -8.228  1.00  0.00     0.000 C 
BRANCH  10  11
HETATM   11  C   UNL     1      41.578 -18.007  -8.960  1.00  0.00     0.000 C 
BRANCH  11  12
HETATM   12  C   UNL     1      41.414 -17.725 -10.458  1.00  0.00     0.000 C 
BRANCH  12  13
HETATM   13  C   UNL     1      41.804 -16.281 -10.792  1.00  0.00     0.000 C 
BRANCH  13  14
HETATM   14  C   UNL     1      40.870 -15.691 -11.856  1.00  0.00     0.000 C 
BRANCH  14  15
HETATM   15  C   UNL     1      39.696 -14.947 -11.208  1.00  0.00     0.000 C 
BRANCH  15  16
HETATM   16  C   UNL     1      39.604 -13.507 -11.725  1.00  0.00     0.000 C 
BRANCH  16  17
HETATM   17  C   UNL     1      40.719 -13.213 -12.736  1.00  0.00    -0.000 C 
BRANCH  17  18
HETATM   18  C   UNL     1      41.289 -11.805 -12.532  1.00  0.00    -0.005 C 
HETATM   19  C   UNL     1      40.805 -11.200 -11.216  1.00  0.00     0.005 C 
ENDBRANCH  17  18
ENDBRANCH  16  17
ENDBRANCH  15  16
ENDBRANCH  14  15
ENDBRANCH  13  14
ENDBRANCH  12  13
ENDBRANCH  11  12
ENDBRANCH  10  11
ENDBRANCH   9  10
ENDBRANCH   8   9
ENDBRANCH   7   8
ENDBRANCH   6   7
ENDBRANCH   5   6
ENDBRANCH   3   5
ENDBRANCH   1   3
TORSDOF 15
ENDMDL
MODEL 8
REMARK VINA RESULT:      -4.7     33.963     35.599
REMARK  15 active torsions:
REMARK  status: ('A' for Active; 'I' for Inactive)
REMARK    1  A    between atoms: O_1  and  C_18 
REMARK    2  A    between atoms: C_3  and  C_4 
REMARK    3  A    between atoms: C_3  and  C_5 
REMARK    4  A    between atoms: C_4  and  C_6 
REMARK    5  A    between atoms: C_5  and  C_7 
REMARK    6  A    between atoms: C_6  and  C_8 
REMARK    7  A    between atoms: C_7  and  C_9 
REMARK    8  A    between atoms: C_8  and  C_10 
REMARK    9  A    between atoms: C_9  and  C_11 
REMARK   10  A    between atoms: C_10  and  C_12 
REMARK   11  A    between atoms: C_11  and  C_13 
REMARK   12  A    between atoms: C_12  and  C_14 
REMARK   13  A    between atoms: C_13  and  C_15 
REMARK   14  A    between atoms: C_14  and  C_16 
REMARK   15  A    between atoms: C_16  and  C_18 
ROOT
HETATM    1  O   UNL     1      26.718 -13.419 -10.926  1.00  0.00    -0.776 OA
HETATM    2  H   UNL     1      27.555 -13.272 -11.389  1.00  0.00     0.167 HD
ENDROOT
BRANCH   1   3
HETATM    3  C   UNL     1      26.662 -13.498  -9.580  1.00  0.00     0.139 C 
HETATM    4  O   UNL     1      25.603 -13.768  -9.031  1.00  0.00    -0.650 OA
BRANCH   3   5
HETATM    5  C   UNL     1      27.916 -13.251  -8.781  1.00  0.00     0.110 C 
BRANCH   5   6
HETATM    6  C   UNL     1      27.913 -11.894  -8.060  1.00  0.00     0.010 C 
BRANCH   6   7
HETATM    7  C   UNL     1      28.589 -12.000  -6.688  1.00  0.00     0.001 C 
BRANCH   7   8
HETATM    8  C   UNL     1      28.805 -13.466  -6.293  1.00  0.00     0.000 C 
BRANCH   8   9
HETATM    9  C   UNL     1      29.985 -13.607  -5.324  1.00  0.00     0.000 C 
BRANCH   9  10
HETATM   10  C   UNL     1      31.139 -14.381  -5.972  1.00  0.00     0.000 C 
BRANCH  10  11
HETATM   11  C   UNL     1      30.661 -15.145  -7.213  1.00  0.00     0.000 C 
BRANCH  11  12
HETATM   12  C   UNL     1      31.372 -14.646  -8.476  1.00  0.00     0.000 C 
BRANCH  12  13
HETATM   13  C   UNL     1      32.769 -14.110  -8.146  1.00  0.00     0.000 C 
BRANCH  13  14
HETATM   14  C   UNL     1      32.965 -12.698  -8.713  1.00  0.00     0.000 C 
BRANCH  14  15
HETATM   15  C   UNL     1      31.649 -11.913  -8.702  1.00  0.00     0.000 C 
BRANCH  15  16
HETATM   16  C   UNL     1      31.476 -11.111  -9.998  1.00  0.00     0.000 C 
BRANCH  16  17
HETATM   17  C   UNL     1      31.573 -12.024 -11.226  1.00  0.00    -0.000 C 
BRANCH  17  18
HETATM   18  C   UNL     1      30.181 -12.447 -11.708  1.00  0.00    -0.005 C 
HETATM   19  C   UNL     1      30.085 -13.964 -11.850  1.00  0.00     0.005 C 
ENDBRANCH  17  18
ENDBRANCH  16  17
ENDBRANCH  15  16
ENDBRANCH  14  15
ENDBRANCH  13  14
ENDBRANCH  12  13
ENDBRANCH  11  12
ENDBRANCH  10  11
ENDBRANCH   9  10
ENDBRANCH   8   9
ENDBRANCH   7   8
ENDBRANCH   6   7
ENDBRANCH   5   6
ENDBRANCH   3   5
ENDBRANCH   1   3
TORSDOF 15
ENDMDL
MODEL 9
REMARK VINA RESULT:      -4.6     42.559     43.715
REMARK  15 active torsions:
REMARK  status: ('A' for Active; 'I' for Inactive)
REMARK    1  A    between atoms: O_1  and  C_18 
REMARK    2  A    between atoms: C_3  and  C_4 
REMARK    3  A    between atoms: C_3  and  C_5 
REMARK    4  A    between atoms: C_4  and  C_6 
REMARK    5  A    between atoms: C_5  and  C_7 
REMARK    6  A    between atoms: C_6  and  C_8 
REMARK    7  A    between atoms: C_7  and  C_9 
REMARK    8  A    between atoms: C_8  and  C_10 
REMARK    9  A    between atoms: C_9  and  C_11 
REMARK   10  A    between atoms: C_10  and  C_12 
REMARK   11  A    between atoms: C_11  and  C_13 
REMARK   12  A    between atoms: C_12  and  C_14 
REMARK   13  A    between atoms: C_13  and  C_15 
REMARK   14  A    between atoms: C_14  and  C_16 
REMARK   15  A    between atoms: C_16  and  C_18 
ROOT
HETATM    1  O   UNL     1      41.381 -10.758 -11.710  1.00  0.00    -0.776 OA
HETATM    2  H   UNL     1      41.082  -9.941 -12.135  1.00  0.00     0.167 HD
ENDROOT
BRANCH   1   3
HETATM    3  C   UNL     1      40.609 -11.408 -10.813  1.00  0.00     0.139 C 
HETATM    4  O   UNL     1      40.919 -11.406  -9.631  1.00  0.00    -0.650 OA
BRANCH   3   5
HETATM    5  C   UNL     1      39.374 -12.124 -11.296  1.00  0.00     0.110 C 
BRANCH   5   6
HETATM    6  C   UNL     1      39.211 -12.081 -12.823  1.00  0.00     0.010 C 
BRANCH   6   7
HETATM    7  C   UNL     1      37.909 -12.765 -13.256  1.00  0.00     0.001 C 
BRANCH   7   8
HETATM    8  C   UNL     1      37.847 -12.917 -14.781  1.00  0.00     0.000 C 
BRANCH   8   9
HETATM    9  C   UNL     1      38.890 -12.025 -15.465  1.00  0.00     0.000 C 
BRANCH   9  10
HETATM   10  C   UNL     1      38.679 -11.998 -16.984  1.00  0.00     0.000 C 
BRANCH  10  11
HETATM   11  C   UNL     1      39.047 -13.347 -17.614  1.00  0.00     0.000 C 
BRANCH  11  12
HETATM   12  C   UNL     1      40.554 -13.436 -17.884  1.00  0.00     0.000 C 
BRANCH  12  13
HETATM   13  C   UNL     1      41.221 -14.449 -16.947  1.00  0.00     0.000 C 
BRANCH  13  14
HETATM   14  C   UNL     1      40.346 -15.697 -16.772  1.00  0.00     0.000 C 
BRANCH  14  15
HETATM   15  C   UNL     1      40.217 -16.075 -15.291  1.00  0.00     0.000 C 
BRANCH  15  16
HETATM   16  C   UNL     1      40.782 -14.971 -14.390  1.00  0.00     0.000 C 
BRANCH  16  17
HETATM   17  C   UNL     1      40.916 -15.458 -12.942  1.00  0.00    -0.000 C 
BRANCH  17  18
HETATM   18  C   UNL     1      42.304 -16.058 -12.690  1.00  0.00    -0.005 C 
HETATM   19  C   UNL     1      42.208 -17.347 -11.879  1.00  0.00     0.005 C 
ENDBRANCH  17  18
ENDBRANCH  16  17
ENDBRANCH  15  16
ENDBRANCH  14  15
ENDBRANCH  13  14
ENDBRANCH  12  13
ENDBRANCH  11  12
ENDBRANCH  10  11
ENDBRANCH   9  10
ENDBRANCH   8   9
ENDBRANCH   7   8
ENDBRANCH   6   7
ENDBRANCH   5   6
ENDBRANCH   3   5
ENDBRANCH   1   3
TORSDOF 15
ENDMDL
MODEL 10
REMARK VINA RESULT:      -4.6     33.393     34.625
REMARK  15 active torsions:
REMARK  status: ('A' for Active; 'I' for Inactive)
REMARK    1  A    between atoms: O_1  and  C_18 
REMARK    2  A    between atoms: C_3  and  C_4 
REMARK    3  A    between atoms: C_3  and  C_5 
REMARK    4  A    between atoms: C_4  and  C_6 
REMARK    5  A    between atoms: C_5  and  C_7 
REMARK    6  A    between atoms: C_6  and  C_8 
REMARK    7  A    between atoms: C_7  and  C_9 
REMARK    8  A    between atoms: C_8  and  C_10 
REMARK    9  A    between atoms: C_9  and  C_11 
REMARK   10  A    between atoms: C_10  and  C_12 
REMARK   11  A    between atoms: C_11  and  C_13 
REMARK   12  A    between atoms: C_12  and  C_14 
REMARK   13  A    between atoms: C_13  and  C_15 
REMARK   14  A    between atoms: C_14  and  C_16 
REMARK   15  A    between atoms: C_16  and  C_18 
ROOT
HETATM    1  O   UNL     1      25.518 -13.753 -14.050  1.00  0.00    -0.776 OA
HETATM    2  H   UNL     1      24.687 -13.713 -13.556  1.00  0.00     0.167 HD
ENDROOT
BRANCH   1   3
HETATM    3  C   UNL     1      26.655 -13.213 -13.562  1.00  0.00     0.139 C 
HETATM    4  O   UNL     1      26.840 -13.175 -12.354  1.00  0.00    -0.650 OA
BRANCH   3   5
HETATM    5  C   UNL     1      27.675 -12.665 -14.526  1.00  0.00     0.110 C 
BRANCH   5   6
HETATM    6  C   UNL     1      28.517 -13.760 -15.200  1.00  0.00     0.010 C 
BRANCH   6   7
HETATM    7  C   UNL     1      28.876 -13.370 -16.638  1.00  0.00     0.001 C 
BRANCH   7   8
HETATM    8  C   UNL     1      28.170 -12.073 -17.049  1.00  0.00     0.000 C 
BRANCH   8   9
HETATM    9  C   UNL     1      27.542 -12.206 -18.442  1.00  0.00     0.000 C 
BRANCH   9  10
HETATM   10  C   UNL     1      28.287 -11.342 -19.466  1.00  0.00     0.000 C 
BRANCH  10  11
HETATM   11  C   UNL     1      29.484 -12.098 -20.055  1.00  0.00     0.000 C 
BRANCH  11  12
HETATM   12  C   UNL     1      30.800 -11.380 -19.736  1.00  0.00     0.000 C 
BRANCH  12  13
HETATM   13  C   UNL     1      31.714 -12.261 -18.877  1.00  0.00     0.000 C 
BRANCH  13  14
HETATM   14  C   UNL     1      33.011 -11.524 -18.520  1.00  0.00     0.000 C 
BRANCH  14  15
HETATM   15  C   UNL     1      32.979 -11.023 -17.071  1.00  0.00     0.000 C 
BRANCH  15  16
HETATM   16  C   UNL     1      31.918 -11.770 -16.254  1.00  0.00     0.000 C 
BRANCH  16  17
HETATM   17  C   UNL     1      31.550 -10.990 -14.986  1.00  0.00    -0.000 C 
BRANCH  17  18
HETATM   18  C   UNL     1      31.490 -11.918 -13.767  1.00  0.00    -0.005 C 
HETATM   19  C   UNL     1      32.889 -12.354 -13.339  1.00  0.00     0.005 C 
ENDBRANCH  17  18
ENDBRANCH  16  17
ENDBRANCH  15  16
ENDBRANCH  14  15
ENDBRANCH  13  14
ENDBRANCH  12  13
ENDBRANCH  11  12
ENDBRANCH  10  11
ENDBRANCH   9  10
ENDBRANCH   8   9
ENDBRANCH   7   8
ENDBRANCH   6   7
ENDBRANCH   5   6
ENDBRANCH   3   5
ENDBRANCH   1   3
TORSDOF 15
ENDMDL
MODEL 11
REMARK VINA RESULT:      -4.6     34.207     35.760
REMARK  15 active torsions:
REMARK  status: ('A' for Active; 'I' for Inactive)
REMARK    1  A    between atoms: O_1  and  C_18 
REMARK    2  A    between atoms: C_3  and  C_4 
REMARK    3  A    between atoms: C_3  and  C_5 
REMARK    4  A    between atoms: C_4  and  C_6 
REMARK    5  A    between atoms: C_5  and  C_7 
REMARK    6  A    between atoms: C_6  and  C_8 
REMARK    7  A    between atoms: C_7  and  C_9 
REMARK    8  A    between atoms: C_8  and  C_10 
REMARK    9  A    between atoms: C_9  and  C_11 
REMARK   10  A    between atoms: C_10  and  C_12 
REMARK   11  A    between atoms: C_11  and  C_13 
REMARK   12  A    between atoms: C_12  and  C_14 
REMARK   13  A    between atoms: C_13  and  C_15 
REMARK   14  A    between atoms: C_14  and  C_16 
REMARK   15  A    between atoms: C_16  and  C_18 
ROOT
HETATM    1  O   UNL     1      26.053 -14.139  -9.525  1.00  0.00    -0.776 OA
HETATM    2  H   UNL     1      25.426 -13.408  -9.613  1.00  0.00     0.167 HD
ENDROOT
BRANCH   1   3
HETATM    3  C   UNL     1      27.383 -13.947  -9.659  1.00  0.00     0.139 C 
HETATM    4  O   UNL     1      28.147 -14.895  -9.550  1.00  0.00    -0.650 OA
BRANCH   3   5
HETATM    5  C   UNL     1      27.895 -12.558  -9.942  1.00  0.00     0.110 C 
BRANCH   5   6
HETATM    6  C   UNL     1      28.621 -11.928  -8.743  1.00  0.00     0.010 C 
BRANCH   6   7
HETATM    7  C   UNL     1      27.843 -12.161  -7.444  1.00  0.00     0.001 C 
BRANCH   7   8
HETATM    8  C   UNL     1      28.781 -12.597  -6.311  1.00  0.00     0.000 C 
BRANCH   8   9
HETATM    9  C   UNL     1      28.031 -13.432  -5.266  1.00  0.00     0.000 C 
BRANCH   9  10
HETATM   10  C   UNL     1      29.005 -14.272  -4.432  1.00  0.00     0.000 C 
BRANCH  10  11
HETATM   11  C   UNL     1      29.396 -15.557  -5.171  1.00  0.00     0.000 C 
BRANCH  11  12
HETATM   12  C   UNL     1      30.872 -15.901  -4.936  1.00  0.00     0.000 C 
BRANCH  12  13
HETATM   13  C   UNL     1      31.772 -15.184  -5.948  1.00  0.00     0.000 C 
BRANCH  13  14
HETATM   14  C   UNL     1      31.133 -15.172  -7.342  1.00  0.00     0.000 C 
BRANCH  14  15
HETATM   15  C   UNL     1      31.657 -13.999  -8.179  1.00  0.00     0.000 C 
BRANCH  15  16
HETATM   16  C   UNL     1      32.602 -13.116  -7.356  1.00  0.00     0.000 C 
BRANCH  16  17
HETATM   17  C   UNL     1      32.194 -11.640  -7.446  1.00  0.00    -0.000 C 
BRANCH  17  18
HETATM   18  C   UNL     1      32.688 -10.857  -6.224  1.00  0.00    -0.005 C 
HETATM   19  C   UNL     1      31.842 -11.168  -4.992  1.00  0.00     0.005 C 
ENDBRANCH  17  18
ENDBRANCH  16  17
ENDBRANCH  15  16
ENDBRANCH  14  15
ENDBRANCH  13  14
ENDBRANCH  12  13
ENDBRANCH  11  12
ENDBRANCH  10  11
ENDBRANCH   9  10
ENDBRANCH   8   9
ENDBRANCH   7   8
ENDBRANCH   6   7
ENDBRANCH   5   6
ENDBRANCH   3   5
ENDBRANCH   1   3
TORSDOF 15
ENDMDL
MODEL 12
REMARK VINA RESULT:      -4.6     34.165     35.351
REMARK  15 active torsions:
REMARK  status: ('A' for Active; 'I' for Inactive)
REMARK    1  A    between atoms: O_1  and  C_18 
REMARK    2  A    between atoms: C_3  and  C_4 
REMARK    3  A    between atoms: C_3  and  C_5 
REMARK    4  A    between atoms: C_4  and  C_6 
REMARK    5  A    between atoms: C_5  and  C_7 
REMARK    6  A    between atoms: C_6  and  C_8 
REMARK    7  A    between atoms: C_7  and  C_9 
REMARK    8  A    between atoms: C_8  and  C_10 
REMARK    9  A    between atoms: C_9  and  C_11 
REMARK   10  A    between atoms: C_10  and  C_12 
REMARK   11  A    between atoms: C_11  and  C_13 
REMARK   12  A    between atoms: C_12  and  C_14 
REMARK   13  A    between atoms: C_13  and  C_15 
REMARK   14  A    between atoms: C_14  and  C_16 
REMARK   15  A    between atoms: C_16  and  C_18 
ROOT
HETATM    1  O   UNL     1      27.479 -14.519 -14.611  1.00  0.00    -0.776 OA
HETATM    2  H   UNL     1      28.176 -14.936 -14.085  1.00  0.00     0.167 HD
ENDROOT
BRANCH   1   3
HETATM    3  C   UNL     1      26.737 -13.504 -14.119  1.00  0.00     0.139 C 
HETATM    4  O   UNL     1      25.533 -13.652 -13.964  1.00  0.00    -0.650 OA
BRANCH   3   5
HETATM    5  C   UNL     1      27.416 -12.205 -13.770  1.00  0.00     0.110 C 
BRANCH   5   6
HETATM    6  C   UNL     1      28.837 -12.397 -13.216  1.00  0.00     0.010 C 
BRANCH   6   7
HETATM    7  C   UNL     1      28.841 -12.348 -11.684  1.00  0.00     0.001 C 
BRANCH   7   8
HETATM    8  C   UNL     1      29.024 -13.750 -11.090  1.00  0.00     0.000 C 
BRANCH   8   9
HETATM    9  C   UNL     1      29.501 -13.673  -9.634  1.00  0.00     0.000 C 
BRANCH   9  10
HETATM   10  C   UNL     1      29.791 -12.224  -9.227  1.00  0.00     0.000 C 
BRANCH  10  11
HETATM   11  C   UNL     1      31.077 -12.133  -8.396  1.00  0.00     0.000 C 
BRANCH  11  12
HETATM   12  C   UNL     1      32.307 -11.981  -9.299  1.00  0.00     0.000 C 
BRANCH  12  13
HETATM   13  C   UNL     1      32.095 -10.873 -10.337  1.00  0.00     0.000 C 
BRANCH  13  14
HETATM   14  C   UNL     1      32.403 -11.379 -11.752  1.00  0.00     0.000 C 
BRANCH  14  15
HETATM   15  C   UNL     1      33.820 -11.960 -11.832  1.00  0.00     0.000 C 
BRANCH  15  16
HETATM   16  C   UNL     1      33.808 -13.352 -12.474  1.00  0.00     0.000 C 
BRANCH  16  17
HETATM   17  C   UNL     1      32.409 -13.978 -12.405  1.00  0.00    -0.000 C 
BRANCH  17  18
HETATM   18  C   UNL     1      32.328 -15.240 -13.271  1.00  0.00    -0.005 C 
HETATM   19  C   UNL     1      30.902 -15.481 -13.760  1.00  0.00     0.005 C 
ENDBRANCH  17  18
ENDBRANCH  16  17
ENDBRANCH  15  16
ENDBRANCH  14  15
ENDBRANCH  13  14
ENDBRANCH  12  13
ENDBRANCH  11  12
ENDBRANCH  10  11
ENDBRANCH   9  10
ENDBRANCH   8   9
ENDBRANCH   7   8
ENDBRANCH   6   7
ENDBRANCH   5   6
ENDBRANCH   3   5
ENDBRANCH   1   3
TORSDOF 15
ENDMDL
MODEL 13
REMARK VINA RESULT:      -4.6     34.341     36.228
REMARK  15 active torsions:
REMARK  status: ('A' for Active; 'I' for Inactive)
REMARK    1  A    between atoms: O_1  and  C_18 
REMARK    2  A    between atoms: C_3  and  C_4 
REMARK    3  A    between atoms: C_3  and  C_5 
REMARK    4  A    between atoms: C_4  and  C_6 
REMARK    5  A    between atoms: C_5  and  C_7 
REMARK    6  A    between atoms: C_6  and  C_8 
REMARK    7  A    between atoms: C_7  and  C_9 
REMARK    8  A    between atoms: C_8  and  C_10 
REMARK    9  A    between atoms: C_9  and  C_11 
REMARK   10  A    between atoms: C_10  and  C_12 
REMARK   11  A    between atoms: C_11  and  C_13 
REMARK   12  A    between atoms: C_12  and  C_14 
REMARK   13  A    between atoms: C_13  and  C_15 
REMARK   14  A    between atoms: C_14  and  C_16 
REMARK   15  A    between atoms: C_16  and  C_18 
ROOT
HETATM    1  O   UNL     1      25.575 -14.321  -4.495  1.00  0.00    -0.776 OA
HETATM    2  H   UNL     1      24.658 -14.035  -4.375  1.00  0.00     0.167 HD
ENDROOT
BRANCH   1   3
HETATM    3  C   UNL     1      26.609 -13.485  -4.268  1.00  0.00     0.139 C 
HETATM    4  O   UNL     1      26.816 -13.066  -3.138  1.00  0.00    -0.650 OA
BRANCH   3   5
HETATM    5  C   UNL     1      27.492 -13.085  -5.422  1.00  0.00     0.110 C 
BRANCH   5   6
HETATM    6  C   UNL     1      28.979 -13.006  -5.045  1.00  0.00     0.010 C 
BRANCH   6   7
HETATM    7  C   UNL     1      29.544 -11.609  -5.326  1.00  0.00     0.001 C 
BRANCH   7   8
HETATM    8  C   UNL     1      31.052 -11.560  -5.049  1.00  0.00     0.000 C 
BRANCH   8   9
HETATM    9  C   UNL     1      31.507 -12.791  -4.257  1.00  0.00     0.000 C 
BRANCH   9  10
HETATM   10  C   UNL     1      32.801 -13.372  -4.838  1.00  0.00     0.000 C 
BRANCH  10  11
HETATM   11  C   UNL     1      32.814 -14.902  -4.732  1.00  0.00     0.000 C 
BRANCH  11  12
HETATM   12  C   UNL     1      31.751 -15.526  -5.644  1.00  0.00     0.000 C 
BRANCH  12  13
HETATM   13  C   UNL     1      32.043 -15.224  -7.118  1.00  0.00     0.000 C 
BRANCH  13  14
HETATM   14  C   UNL     1      30.799 -14.668  -7.822  1.00  0.00     0.000 C 
BRANCH  14  15
HETATM   15  C   UNL     1      31.029 -13.225  -8.288  1.00  0.00     0.000 C 
BRANCH  15  16
HETATM   16  C   UNL     1      30.028 -12.834  -9.381  1.00  0.00     0.000 C 
BRANCH  16  17
HETATM   17  C   UNL     1      28.799 -13.751  -9.356  1.00  0.00    -0.000 C 
BRANCH  17  18
HETATM   18  C   UNL     1      27.535 -12.968  -8.982  1.00  0.00    -0.005 C 
HETATM   19  C   UNL     1      27.810 -11.467  -8.942  1.00  0.00     0.005 C 
ENDBRANCH  17  18
ENDBRANCH  16  17
ENDBRANCH  15  16
ENDBRANCH  14  15
ENDBRANCH  13  14
ENDBRANCH  12  13
ENDBRANCH  11  12
ENDBRANCH  10  11
ENDBRANCH   9  10
ENDBRANCH   8   9
ENDBRANCH   7   8
ENDBRANCH   6   7
ENDBRANCH   5   6
ENDBRANCH   3   5
ENDBRANCH   1   3
TORSDOF 15
ENDMDL
MODEL 14
REMARK VINA RESULT:      -4.6     34.662     35.717
REMARK  15 active torsions:
REMARK  status: ('A' for Active; 'I' for Inactive)
REMARK    1  A    between atoms: O_1  and  C_18 
REMARK    2  A    between atoms: C_3  and  C_4 
REMARK    3  A    between atoms: C_3  and  C_5 
REMARK    4  A    between atoms: C_4  and  C_6 
REMARK    5  A    between atoms: C_5  and  C_7 
REMARK    6  A    between atoms: C_6  and  C_8 
REMARK    7  A    between atoms: C_7  and  C_9 
REMARK    8  A    between atoms: C_8  and  C_10 
REMARK    9  A    between atoms: C_9  and  C_11 
REMARK   10  A    between atoms: C_10  and  C_12 
REMARK   11  A    between atoms: C_11  and  C_13 
REMARK   12  A    between atoms: C_12  and  C_14 
REMARK   13  A    between atoms: C_13  and  C_15 
REMARK   14  A    between atoms: C_14  and  C_16 
REMARK   15  A    between atoms: C_16  and  C_18 
ROOT
HETATM    1  O   UNL     1      25.902 -14.078 -14.642  1.00  0.00    -0.776 OA
HETATM    2  H   UNL     1      24.952 -14.173 -14.485  1.00  0.00     0.167 HD
ENDROOT
BRANCH   1   3
HETATM    3  C   UNL     1      26.658 -13.240 -13.901  1.00  0.00     0.139 C 
HETATM    4  O   UNL     1      26.467 -13.155 -12.696  1.00  0.00    -0.650 OA
BRANCH   3   5
HETATM    5  C   UNL     1      27.727 -12.426 -14.582  1.00  0.00     0.110 C 
BRANCH   5   6
HETATM    6  C   UNL     1      27.958 -12.836 -16.045  1.00  0.00     0.010 C 
BRANCH   6   7
HETATM    7  C   UNL     1      29.371 -13.394 -16.243  1.00  0.00     0.001 C 
BRANCH   7   8
HETATM    8  C   UNL     1      29.575 -14.678 -15.430  1.00  0.00     0.000 C 
BRANCH   8   9
HETATM    9  C   UNL     1      30.537 -15.635 -16.144  1.00  0.00     0.000 C 
BRANCH   9  10
HETATM   10  C   UNL     1      31.261 -14.929 -17.296  1.00  0.00     0.000 C 
BRANCH  10  11
HETATM   11  C   UNL     1      32.782 -15.025 -17.131  1.00  0.00     0.000 C 
BRANCH  11  12
HETATM   12  C   UNL     1      33.458 -13.690 -17.464  1.00  0.00     0.000 C 
BRANCH  12  13
HETATM   13  C   UNL     1      32.480 -12.736 -18.159  1.00  0.00     0.000 C 
BRANCH  13  14
HETATM   14  C   UNL     1      32.460 -11.368 -17.467  1.00  0.00     0.000 C 
BRANCH  14  15
HETATM   15  C   UNL     1      32.973 -11.472 -16.026  1.00  0.00     0.000 C 
BRANCH  15  16
HETATM   16  C   UNL     1      31.981 -10.840 -15.042  1.00  0.00     0.000 C 
BRANCH  16  17
HETATM   17  C   UNL     1      31.642 -11.809 -13.904  1.00  0.00    -0.000 C 
BRANCH  17  18
HETATM   18  C   UNL     1      32.545 -13.047 -13.948  1.00  0.00    -0.005 C 
HETATM   19  C   UNL     1      33.389 -13.158 -12.681  1.00  0.00     0.005 C 
ENDBRANCH  17  18
ENDBRANCH  16  17
ENDBRANCH  15  16
ENDBRANCH  14  15
ENDBRANCH  13  14
ENDBRANCH  12  13
ENDBRANCH  11  12
ENDBRANCH  10  11
ENDBRANCH   9  10
ENDBRANCH   8   9
ENDBRANCH   7   8
ENDBRANCH   6   7
ENDBRANCH   5   6
ENDBRANCH   3   5
ENDBRANCH   1   3
TORSDOF 15
ENDMDL
MODEL 15
REMARK VINA RESULT:      -4.6     45.697     46.878
REMARK  15 active torsions:
REMARK  status: ('A' for Active; 'I' for Inactive)
REMARK    1  A    between atoms: O_1  and  C_18 
REMARK    2  A    between atoms: C_3  and  C_4 
REMARK    3  A    between atoms: C_3  and  C_5 
REMARK    4  A    between atoms: C_4  and  C_6 
REMARK    5  A    between atoms: C_5  and  C_7 
REMARK    6  A    between atoms: C_6  and  C_8 
REMARK    7  A    between atoms: C_7  and  C_9 
REMARK    8  A    between atoms: C_8  and  C_10 
REMARK    9  A    between atoms: C_9  and  C_11 
REMARK   10  A    between atoms: C_10  and  C_12 
REMARK   11  A    between atoms: C_11  and  C_13 
REMARK   12  A    between atoms: C_12  and  C_14 
REMARK   13  A    between atoms: C_13  and  C_15 
REMARK   14  A    between atoms: C_14  and  C_16 
REMARK   15  A    between atoms: C_16  and  C_18 
ROOT
HETATM    1  O   UNL     1      41.638 -10.783 -16.603  1.00  0.00    -0.776 OA
HETATM    2  H   UNL     1      42.268 -11.070 -15.927  1.00  0.00     0.167 HD
ENDROOT
BRANCH   1   3
HETATM    3  C   UNL     1      41.074 -11.662 -17.458  1.00  0.00     0.139 C 
HETATM    4  O   UNL     1      41.176 -11.487 -18.664  1.00  0.00    -0.650 OA
BRANCH   3   5
HETATM    5  C   UNL     1      40.328 -12.847 -16.901  1.00  0.00     0.110 C 
BRANCH   5   6
HETATM    6  C   UNL     1      40.663 -14.163 -17.621  1.00  0.00     0.010 C 
BRANCH   6   7
HETATM    7  C   UNL     1      40.525 -15.359 -16.672  1.00  0.00     0.001 C 
BRANCH   7   8
HETATM    8  C   UNL     1      40.634 -14.914 -15.208  1.00  0.00     0.000 C 
BRANCH   8   9
HETATM    9  C   UNL     1      40.726 -16.125 -14.270  1.00  0.00     0.000 C 
BRANCH   9  10
HETATM   10  C   UNL     1      41.367 -15.737 -12.933  1.00  0.00     0.000 C 
BRANCH  10  11
HETATM   11  C   UNL     1      42.820 -16.221 -12.859  1.00  0.00     0.000 C 
BRANCH  11  12
HETATM   12  C   UNL     1      43.029 -17.473 -13.718  1.00  0.00     0.000 C 
BRANCH  12  13
HETATM   13  C   UNL     1      44.521 -17.765 -13.912  1.00  0.00     0.000 C 
BRANCH  13  14
HETATM   14  C   UNL     1      44.895 -17.757 -15.399  1.00  0.00     0.000 C 
BRANCH  14  15
HETATM   15  C   UNL     1      43.773 -17.146 -16.246  1.00  0.00     0.000 C 
BRANCH  15  16
HETATM   16  C   UNL     1      44.231 -16.928 -17.692  1.00  0.00     0.000 C 
BRANCH  16  17
HETATM   17  C   UNL     1      45.268 -17.980 -18.105  1.00  0.00    -0.000 C 
BRANCH  17  18
HETATM   18  C   UNL     1      45.578 -17.889 -19.604  1.00  0.00    -0.005 C 
HETATM   19  C   UNL     1      45.139 -19.154 -20.335  1.00  0.00     0.005 C 
ENDBRANCH  17  18
ENDBRANCH  16  17
ENDBRANCH  15  16
ENDBRANCH  14  15
ENDBRANCH  13  14
ENDBRANCH  12  13
ENDBRANCH  11  12
ENDBRANCH  10  11
ENDBRANCH   9  10
ENDBRANCH   8   9
ENDBRANCH   7   8
ENDBRANCH   6   7
ENDBRANCH   5   6
ENDBRANCH   3   5
ENDBRANCH   1   3
TORSDOF 15
ENDMDL
MODEL 16
REMARK VINA RESULT:      -4.6     34.360     35.610
REMARK  15 active torsions:
REMARK  status: ('A' for Active; 'I' for Inactive)
REMARK    1  A    between atoms: O_1  and  C_18 
REMARK    2  A    between atoms: C_3  and  C_4 
REMARK    3  A    between atoms: C_3  and  C_5 
REMARK    4  A    between atoms: C_4  and  C_6 
REMARK    5  A    between atoms: C_5  and  C_7 
REMARK    6  A    between atoms: C_6  and  C_8 
REMARK    7  A    between atoms: C_7  and  C_9 
REMARK    8  A    between atoms: C_8  and  C_10 
REMARK    9  A    between atoms: C_9  and  C_11 
REMARK   10  A    between atoms: C_10  and  C_12 
REMARK   11  A    between atoms: C_11  and  C_13 
REMARK   12  A    between atoms: C_12  and  C_14 
REMARK   13  A    between atoms: C_13  and  C_15 
REMARK   14  A    between atoms: C_14  and  C_16 
REMARK   15  A    between atoms: C_16  and  C_18 
ROOT
HETATM    1  O   UNL     1      29.351 -18.022 -10.040  1.00  0.00    -0.776 OA
HETATM    2  H   UNL     1      28.621 -18.538  -9.671  1.00  0.00     0.167 HD
ENDROOT
BRANCH   1   3
HETATM    3  C   UNL     1      29.520 -16.719  -9.732  1.00  0.00     0.139 C 
HETATM    4  O   UNL     1      28.707 -16.155  -9.012  1.00  0.00    -0.650 OA
BRANCH   3   5
HETATM    5  C   UNL     1      30.714 -15.986 -10.285  1.00  0.00     0.110 C 
BRANCH   5   6
HETATM    6  C   UNL     1      30.332 -14.830 -11.222  1.00  0.00     0.010 C 
BRANCH   6   7
HETATM    7  C   UNL     1      31.367 -13.702 -11.153  1.00  0.00     0.001 C 
BRANCH   7   8
HETATM    8  C   UNL     1      30.729 -12.399 -10.655  1.00  0.00     0.000 C 
BRANCH   8   9
HETATM    9  C   UNL     1      29.209 -12.549 -10.516  1.00  0.00     0.000 C 
BRANCH   9  10
HETATM   10  C   UNL     1      28.552 -11.204 -10.183  1.00  0.00     0.000 C 
BRANCH  10  11
HETATM   11  C   UNL     1      27.749 -11.292  -8.880  1.00  0.00     0.000 C 
BRANCH  11  12
HETATM   12  C   UNL     1      27.879 -12.681  -8.244  1.00  0.00     0.000 C 
BRANCH  12  13
HETATM   13  C   UNL     1      27.958 -12.582  -6.716  1.00  0.00     0.000 C 
BRANCH  13  14
HETATM   14  C   UNL     1      29.402 -12.753  -6.228  1.00  0.00     0.000 C 
BRANCH  14  15
HETATM   15  C   UNL     1      30.127 -13.844  -7.026  1.00  0.00     0.000 C 
BRANCH  15  16
HETATM   16  C   UNL     1      31.568 -13.427  -7.342  1.00  0.00     0.000 C 
BRANCH  16  17
HETATM   17  C   UNL     1      31.761 -11.919  -7.142  1.00  0.00    -0.000 C 
BRANCH  17  18
HETATM   18  C   UNL     1      32.940 -11.635  -6.204  1.00  0.00    -0.005 C 
HETATM   19  C   UNL     1      32.764 -10.299  -5.487  1.00  0.00     0.005 C 
ENDBRANCH  17  18
ENDBRANCH  16  17
ENDBRANCH  15  16
ENDBRANCH  14  15
ENDBRANCH  13  14
ENDBRANCH  12  13
ENDBRANCH  11  12
ENDBRANCH  10  11
ENDBRANCH   9  10
ENDBRANCH   8   9
ENDBRANCH   7   8
ENDBRANCH   6   7
ENDBRANCH   5   6
ENDBRANCH   3   5
ENDBRANCH   1   3
TORSDOF 15
ENDMDL
MODEL 17
REMARK VINA RESULT:      -4.6     34.158     35.527
REMARK  15 active torsions:
REMARK  status: ('A' for Active; 'I' for Inactive)
REMARK    1  A    between atoms: O_1  and  C_18 
REMARK    2  A    between atoms: C_3  and  C_4 
REMARK    3  A    between atoms: C_3  and  C_5 
REMARK    4  A    between atoms: C_4  and  C_6 
REMARK    5  A    between atoms: C_5  and  C_7 
REMARK    6  A    between atoms: C_6  and  C_8 
REMARK    7  A    between atoms: C_7  and  C_9 
REMARK    8  A    between atoms: C_8  and  C_10 
REMARK    9  A    between atoms: C_9  and  C_11 
REMARK   10  A    between atoms: C_10  and  C_12 
REMARK   11  A    between atoms: C_11  and  C_13 
REMARK   12  A    between atoms: C_12  and  C_14 
REMARK   13  A    between atoms: C_13  and  C_15 
REMARK   14  A    between atoms: C_14  and  C_16 
REMARK   15  A    between atoms: C_16  and  C_18 
ROOT
HETATM    1  O   UNL     1      26.257 -13.304 -13.175  1.00  0.00    -0.776 OA
HETATM    2  H   UNL     1      25.434 -12.799 -13.133  1.00  0.00     0.167 HD
ENDROOT
BRANCH   1   3
HETATM    3  C   UNL     1      26.893 -13.519 -14.346  1.00  0.00     0.139 C 
HETATM    4  O   UNL     1      26.242 -13.691 -15.367  1.00  0.00    -0.650 OA
BRANCH   3   5
HETATM    5  C   UNL     1      28.399 -13.541 -14.367  1.00  0.00     0.110 C 
BRANCH   5   6
HETATM    6  C   UNL     1      29.030 -12.610 -13.319  1.00  0.00     0.010 C 
BRANCH   6   7
HETATM    7  C   UNL     1      30.499 -12.325 -13.652  1.00  0.00     0.001 C 
BRANCH   7   8
HETATM    8  C   UNL     1      30.624 -11.545 -14.967  1.00  0.00     0.000 C 
BRANCH   8   9
HETATM    9  C   UNL     1      31.887 -10.676 -14.974  1.00  0.00     0.000 C 
BRANCH   9  10
HETATM   10  C   UNL     1      32.794 -11.034 -16.157  1.00  0.00     0.000 C 
BRANCH  10  11
HETATM   11  C   UNL     1      32.209 -12.198 -16.966  1.00  0.00     0.000 C 
BRANCH  11  12
HETATM   12  C   UNL     1      33.181 -13.383 -17.009  1.00  0.00     0.000 C 
BRANCH  12  13
HETATM   13  C   UNL     1      32.457 -14.675 -17.404  1.00  0.00     0.000 C 
BRANCH  13  14
HETATM   14  C   UNL     1      31.455 -15.097 -16.322  1.00  0.00     0.000 C 
BRANCH  14  15
HETATM   15  C   UNL     1      30.059 -15.315 -16.920  1.00  0.00     0.000 C 
BRANCH  15  16
HETATM   16  C   UNL     1      30.084 -15.164 -18.445  1.00  0.00     0.000 C 
BRANCH  16  17
HETATM   17  C   UNL     1      28.895 -14.328 -18.934  1.00  0.00    -0.000 C 
BRANCH  17  18
HETATM   18  C   UNL     1      29.195 -12.829 -18.827  1.00  0.00    -0.005 C 
HETATM   19  C   UNL     1      28.244 -12.146 -17.846  1.00  0.00     0.005 C 
ENDBRANCH  17  18
ENDBRANCH  16  17
ENDBRANCH  15  16
ENDBRANCH  14  15
ENDBRANCH  13  14
ENDBRANCH  12  13
ENDBRANCH  11  12
ENDBRANCH  10  11
ENDBRANCH   9  10
ENDBRANCH   8   9
ENDBRANCH   7   8
ENDBRANCH   6   7
ENDBRANCH   5   6
ENDBRANCH   3   5
ENDBRANCH   1   3
TORSDOF 15
ENDMDL
MODEL 18
REMARK VINA RESULT:      -4.5     34.207     35.762
REMARK  15 active torsions:
REMARK  status: ('A' for Active; 'I' for Inactive)
REMARK    1  A    between atoms: O_1  and  C_18 
REMARK    2  A    between atoms: C_3  and  C_4 
REMARK    3  A    between atoms: C_3  and  C_5 
REMARK    4  A    between atoms: C_4  and  C_6 
REMARK    5  A    between atoms: C_5  and  C_7 
REMARK    6  A    between atoms: C_6  and  C_8 
REMARK    7  A    between atoms: C_7  and  C_9 
REMARK    8  A    between atoms: C_8  and  C_10 
REMARK    9  A    between atoms: C_9  and  C_11 
REMARK   10  A    between atoms: C_10  and  C_12 
REMARK   11  A    between atoms: C_11  and  C_13 
REMARK   12  A    between atoms: C_12  and  C_14 
REMARK   13  A    between atoms: C_13  and  C_15 
REMARK   14  A    between atoms: C_14  and  C_16 
REMARK   15  A    between atoms: C_16  and  C_18 
ROOT
HETATM    1  O   UNL     1      28.702 -16.746 -18.927  1.00  0.00    -0.776 OA
HETATM    2  H   UNL     1      28.883 -17.445 -18.283  1.00  0.00     0.167 HD
ENDROOT
BRANCH   1   3
HETATM    3  C   UNL     1      29.649 -16.320 -19.790  1.00  0.00     0.139 C 
HETATM    4  O   UNL     1      29.437 -16.363 -20.993  1.00  0.00    -0.650 OA
BRANCH   3   5
HETATM    5  C   UNL     1      30.953 -15.799 -19.245  1.00  0.00     0.110 C 
BRANCH   5   6
HETATM    6  C   UNL     1      30.771 -14.660 -18.230  1.00  0.00     0.010 C 
BRANCH   6   7
HETATM    7  C   UNL     1      31.394 -15.024 -16.878  1.00  0.00     0.001 C 
BRANCH   7   8
HETATM    8  C   UNL     1      30.864 -14.112 -15.764  1.00  0.00     0.000 C 
BRANCH   8   9
HETATM    9  C   UNL     1      30.896 -12.641 -16.195  1.00  0.00     0.000 C 
BRANCH   9  10
HETATM   10  C   UNL     1      29.674 -11.885 -15.662  1.00  0.00     0.000 C 
BRANCH  10  11
HETATM   11  C   UNL     1      28.371 -12.543 -16.134  1.00  0.00     0.000 C 
BRANCH  11  12
HETATM   12  C   UNL     1      27.917 -11.963 -17.479  1.00  0.00     0.000 C 
BRANCH  12  13
HETATM   13  C   UNL     1      27.542 -13.079 -18.460  1.00  0.00     0.000 C 
BRANCH  13  14
HETATM   14  C   UNL     1      27.992 -12.733 -19.885  1.00  0.00     0.000 C 
BRANCH  14  15
HETATM   15  C   UNL     1      28.916 -11.509 -19.888  1.00  0.00     0.000 C 
BRANCH  15  16
HETATM   16  C   UNL     1      30.278 -11.849 -20.505  1.00  0.00     0.000 C 
BRANCH  16  17
HETATM   17  C   UNL     1      31.421 -11.251 -19.677  1.00  0.00    -0.000 C 
BRANCH  17  18
HETATM   18  C   UNL     1      32.737 -11.266 -20.464  1.00  0.00    -0.005 C 
HETATM   19  C   UNL     1      33.537  -9.988 -20.225  1.00  0.00     0.005 C 
ENDBRANCH  17  18
ENDBRANCH  16  17
ENDBRANCH  15  16
ENDBRANCH  14  15
ENDBRANCH  13  14
ENDBRANCH  12  13
ENDBRANCH  11  12
ENDBRANCH  10  11
ENDBRANCH   9  10
ENDBRANCH   8   9
ENDBRANCH   7   8
ENDBRANCH   6   7
ENDBRANCH   5   6
ENDBRANCH   3   5
ENDBRANCH   1   3
TORSDOF 15
ENDMDL
MODEL 19
REMARK VINA RESULT:      -4.5     39.953     40.987
REMARK  15 active torsions:
REMARK  status: ('A' for Active; 'I' for Inactive)
REMARK    1  A    between atoms: O_1  and  C_18 
REMARK    2  A    between atoms: C_3  and  C_4 
REMARK    3  A    between atoms: C_3  and  C_5 
REMARK    4  A    between atoms: C_4  and  C_6 
REMARK    5  A    between atoms: C_5  and  C_7 
REMARK    6  A    between atoms: C_6  and  C_8 
REMARK    7  A    between atoms: C_7  and  C_9 
REMARK    8  A    between atoms: C_8  and  C_10 
REMARK    9  A    between atoms: C_9  and  C_11 
REMARK   10  A    between atoms: C_10  and  C_12 
REMARK   11  A    between atoms: C_11  and  C_13 
REMARK   12  A    between atoms: C_12  and  C_14 
REMARK   13  A    between atoms: C_13  and  C_15 
REMARK   14  A    between atoms: C_14  and  C_16 
REMARK   15  A    between atoms: C_16  and  C_18 
ROOT
HETATM    1  O   UNL     1      34.885  -8.403 -11.296  1.00  0.00    -0.776 OA
HETATM    2  H   UNL     1      34.362  -7.854 -11.896  1.00  0.00     0.167 HD
ENDROOT
BRANCH   1   3
HETATM    3  C   UNL     1      34.793  -9.749 -11.312  1.00  0.00     0.139 C 
HETATM    4  O   UNL     1      34.650 -10.361 -10.263  1.00  0.00    -0.650 OA
BRANCH   3   5
HETATM    5  C   UNL     1      34.869 -10.470 -12.633  1.00  0.00     0.110 C 
BRANCH   5   6
HETATM    6  C   UNL     1      36.059 -11.438 -12.725  1.00  0.00     0.010 C 
BRANCH   6   7
HETATM    7  C   UNL     1      36.407 -11.743 -14.186  1.00  0.00     0.001 C 
BRANCH   7   8
HETATM    8  C   UNL     1      36.768 -13.222 -14.368  1.00  0.00     0.000 C 
BRANCH   8   9
HETATM    9  C   UNL     1      37.027 -13.548 -15.844  1.00  0.00     0.000 C 
BRANCH   9  10
HETATM   10  C   UNL     1      38.493 -13.934 -16.073  1.00  0.00     0.000 C 
BRANCH  10  11
HETATM   11  C   UNL     1      39.265 -13.973 -14.748  1.00  0.00     0.000 C 
BRANCH  11  12
HETATM   12  C   UNL     1      40.421 -12.967 -14.753  1.00  0.00     0.000 C 
BRANCH  12  13
HETATM   13  C   UNL     1      40.195 -11.864 -13.712  1.00  0.00     0.000 C 
BRANCH  13  14
HETATM   14  C   UNL     1      41.324 -11.847 -12.674  1.00  0.00     0.000 C 
BRANCH  14  15
HETATM   15  C   UNL     1      40.844 -11.247 -11.348  1.00  0.00     0.000 C 
BRANCH  15  16
HETATM   16  C   UNL     1      39.381 -11.615 -11.075  1.00  0.00     0.000 C 
BRANCH  16  17
HETATM   17  C   UNL     1      39.284 -12.883 -10.218  1.00  0.00    -0.000 C 
BRANCH  17  18
HETATM   18  C   UNL     1      38.822 -14.080 -11.057  1.00  0.00    -0.005 C 
HETATM   19  C   UNL     1      39.952 -15.087 -11.249  1.00  0.00     0.005 C 
ENDBRANCH  17  18
ENDBRANCH  16  17
ENDBRANCH  15  16
ENDBRANCH  14  15
ENDBRANCH  13  14
ENDBRANCH  12  13
ENDBRANCH  11  12
ENDBRANCH  10  11
ENDBRANCH   9  10
ENDBRANCH   8   9
ENDBRANCH   7   8
ENDBRANCH   6   7
ENDBRANCH   5   6
ENDBRANCH   3   5
ENDBRANCH   1   3
TORSDOF 15
ENDMDL
MODEL 20
REMARK VINA RESULT:      -4.4     34.092     34.962
REMARK  15 active torsions:
REMARK  status: ('A' for Active; 'I' for Inactive)
REMARK    1  A    between atoms: O_1  and  C_18 
REMARK    2  A    between atoms: C_3  and  C_4 
REMARK    3  A    between atoms: C_3  and  C_5 
REMARK    4  A    between atoms: C_4  and  C_6 
REMARK    5  A    between atoms: C_5  and  C_7 
REMARK    6  A    between atoms: C_6  and  C_8 
REMARK    7  A    between atoms: C_7  and  C_9 
REMARK    8  A    between atoms: C_8  and  C_10 
REMARK    9  A    between atoms: C_9  and  C_11 
REMARK   10  A    between atoms: C_10  and  C_12 
REMARK   11  A    between atoms: C_11  and  C_13 
REMARK   12  A    between atoms: C_12  and  C_14 
REMARK   13  A    between atoms: C_13  and  C_15 
REMARK   14  A    between atoms: C_14  and  C_16 
REMARK   15  A    between atoms: C_16  and  C_18 
ROOT
HETATM    1  O   UNL     1      28.516 -16.368 -13.964  1.00  0.00    -0.776 OA
HETATM    2  H   UNL     1      28.144 -17.256 -14.063  1.00  0.00     0.167 HD
ENDROOT
BRANCH   1   3
HETATM    3  C   UNL     1      29.565 -15.957 -14.708  1.00  0.00     0.139 C 
HETATM    4  O   UNL     1      29.551 -16.122 -15.919  1.00  0.00    -0.650 OA
BRANCH   3   5
HETATM    5  C   UNL     1      30.733 -15.298 -14.022  1.00  0.00     0.110 C 
BRANCH   5   6
HETATM    6  C   UNL     1      31.436 -14.251 -14.900  1.00  0.00     0.010 C 
BRANCH   6   7
HETATM    7  C   UNL     1      31.160 -12.832 -14.390  1.00  0.00     0.001 C 
BRANCH   7   8
HETATM    8  C   UNL     1      30.529 -11.966 -15.487  1.00  0.00     0.000 C 
BRANCH   8   9
HETATM    9  C   UNL     1      29.139 -11.472 -15.068  1.00  0.00     0.000 C 
BRANCH   9  10
HETATM   10  C   UNL     1      28.085 -12.568 -15.258  1.00  0.00     0.000 C 
BRANCH  10  11
HETATM   11  C   UNL     1      27.443 -12.953 -13.919  1.00  0.00     0.000 C 
BRANCH  11  12
HETATM   12  C   UNL     1      27.792 -11.934 -12.828  1.00  0.00     0.000 C 
BRANCH  12  13
HETATM   13  C   UNL     1      28.373 -12.629 -11.591  1.00  0.00     0.000 C 
BRANCH  13  14
HETATM   14  C   UNL     1      28.627 -11.622 -10.462  1.00  0.00     0.000 C 
BRANCH  14  15
HETATM   15  C   UNL     1      30.059 -11.742  -9.928  1.00  0.00     0.000 C 
BRANCH  15  16
HETATM   16  C   UNL     1      30.907 -12.647 -10.829  1.00  0.00     0.000 C 
BRANCH  16  17
HETATM   17  C   UNL     1      32.392 -12.275 -10.740  1.00  0.00    -0.000 C 
BRANCH  17  18
HETATM   18  C   UNL     1      32.675 -10.960 -11.475  1.00  0.00    -0.005 C 
HETATM   19  C   UNL     1      33.861 -11.102 -12.425  1.00  0.00     0.005 C 
ENDBRANCH  17  18
ENDBRANCH  16  17
ENDBRANCH  15  16
ENDBRANCH  14  15
ENDBRANCH  13  14
ENDBRANCH  12  13
ENDBRANCH  11  12
ENDBRANCH  10  11
ENDBRANCH   9  10
ENDBRANCH   8   9
ENDBRANCH   7   8
ENDBRANCH   6   7
ENDBRANCH   5   6
ENDBRANCH   3   5
ENDBRANCH   1   3
TORSDOF 15
ENDMDL
