MODEL 1
REMARK VINA RESULT:      -9.9      0.000      0.000
REMARK  2 active torsions:
REMARK  status: ('A' for Active; 'I' for Inactive)
REMARK    1  A    between atoms: N_3  and  C_15 
REMARK    2  A    between atoms: C_5  and  C_7 
ROOT
HETATM    1  S   UNL     1      53.589  -5.461 -15.561  1.00  0.00    -0.069 SA
HETATM    2  N   UNL     1      54.294  -7.896 -15.574  1.00  0.00    -0.344 N 
HETATM    3  C   UNL     1      54.134  -7.519 -14.264  1.00  0.00     0.052 A 
HETATM    4  C   UNL     1      53.999  -6.861 -16.434  1.00  0.00     0.087 A 
HETATM    5  C   UNL     1      53.746  -6.203 -14.075  1.00  0.00     0.034 A 
HETATM    6  C   UNL     1      54.343  -8.339 -13.141  1.00  0.00     0.031 A 
HETATM    7  C   UNL     1      53.545  -5.649 -12.814  1.00  0.00     0.028 A 
HETATM    8  C   UNL     1      54.789  -9.234 -15.927  1.00  0.00     0.157 C 
HETATM    9  C   UNL     1      53.747  -6.464 -11.685  1.00  0.00    -0.061 A 
HETATM   10  C   UNL     1      54.147  -7.807 -11.857  1.00  0.00     0.009 A 
HETATM   11  C   UNL     1      53.545  -5.921 -10.303  1.00  0.00     0.048 C 
ENDROOT
BRANCH   4  12
HETATM   12  C   UNL     1      53.976  -6.874 -17.932  1.00  0.00    -0.002 A 
HETATM   13  C   UNL     1      54.149  -8.046 -18.690  1.00  0.00     0.016 A 
HETATM   14  C   UNL     1      54.098  -8.016 -20.087  1.00  0.00     0.030 A 
HETATM   15  C   UNL     1      53.863  -6.813 -20.785  1.00  0.00     0.029 A 
HETATM   16  C   UNL     1      53.669  -5.644 -20.020  1.00  0.00     0.030 A 
HETATM   17  C   UNL     1      53.715  -5.678 -18.624  1.00  0.00     0.016 A 
BRANCH  15  18
HETATM   18  N   UNL     1      53.812  -6.781 -22.228  1.00  0.00    -0.390 N 
HETATM   19  C   UNL     1      53.327  -5.598 -22.927  1.00  0.00     0.149 C 
HETATM   20  C   UNL     1      54.243  -7.930 -23.012  1.00  0.00     0.149 C 
ENDBRANCH  15  18
ENDBRANCH   4  12
TORSDOF 2
ENDMDL
MODEL 2
REMARK VINA RESULT:      -9.7      2.576      4.913
REMARK  2 active torsions:
REMARK  status: ('A' for Active; 'I' for Inactive)
REMARK    1  A    between atoms: N_3  and  C_15 
REMARK    2  A    between atoms: C_5  and  C_7 
ROOT
HETATM    1  S   UNL     1      53.565  -5.468 -10.713  1.00  0.00    -0.069 SA
HETATM    2  N   UNL     1      54.289  -7.896 -10.725  1.00  0.00    -0.344 N 
HETATM    3  C   UNL     1      54.125  -7.521  -9.415  1.00  0.00     0.052 A 
HETATM    4  C   UNL     1      53.987  -6.864 -11.585  1.00  0.00     0.087 A 
HETATM    5  C   UNL     1      53.725  -6.207  -9.227  1.00  0.00     0.034 A 
HETATM    6  C   UNL     1      54.340  -8.339  -8.292  1.00  0.00     0.031 A 
HETATM    7  C   UNL     1      53.519  -5.655  -7.966  1.00  0.00     0.028 A 
HETATM    8  C   UNL     1      54.796  -9.229 -11.078  1.00  0.00     0.157 C 
HETATM    9  C   UNL     1      53.726  -6.469  -6.837  1.00  0.00    -0.061 A 
HETATM   10  C   UNL     1      54.137  -7.808  -7.008  1.00  0.00     0.009 A 
HETATM   11  C   UNL     1      53.518  -5.928  -5.455  1.00  0.00     0.048 C 
ENDROOT
BRANCH   4  12
HETATM   12  C   UNL     1      53.966  -6.877 -13.083  1.00  0.00    -0.002 A 
HETATM   13  C   UNL     1      54.147  -8.048 -13.841  1.00  0.00     0.016 A 
HETATM   14  C   UNL     1      54.098  -8.018 -15.238  1.00  0.00     0.030 A 
HETATM   15  C   UNL     1      53.857  -6.817 -15.937  1.00  0.00     0.029 A 
HETATM   16  C   UNL     1      53.653  -5.649 -15.172  1.00  0.00     0.030 A 
HETATM   17  C   UNL     1      53.698  -5.683 -13.776  1.00  0.00     0.016 A 
BRANCH  15  18
HETATM   18  N   UNL     1      53.807  -6.785 -17.380  1.00  0.00    -0.390 N 
HETATM   19  C   UNL     1      54.240  -7.935 -18.163  1.00  0.00     0.149 C 
HETATM   20  C   UNL     1      53.324  -5.603 -18.080  1.00  0.00     0.149 C 
ENDBRANCH  15  18
ENDBRANCH   4  12
TORSDOF 2
ENDMDL
MODEL 3
REMARK VINA RESULT:      -9.5      1.695      7.864
REMARK  2 active torsions:
REMARK  status: ('A' for Active; 'I' for Inactive)
REMARK    1  A    between atoms: N_3  and  C_15 
REMARK    2  A    between atoms: C_5  and  C_7 
ROOT
HETATM    1  S   UNL     1      53.395  -5.496 -16.078  1.00  0.00    -0.069 SA
HETATM    2  N   UNL     1      54.151  -7.914 -16.125  1.00  0.00    -0.344 N 
HETATM    3  C   UNL     1      54.073  -7.481 -17.425  1.00  0.00     0.052 A 
HETATM    4  C   UNL     1      53.828  -6.909 -15.240  1.00  0.00     0.087 A 
HETATM    5  C   UNL     1      53.669  -6.164 -17.581  1.00  0.00     0.034 A 
HETATM    6  C   UNL     1      54.347  -8.252 -18.567  1.00  0.00     0.031 A 
HETATM    7  C   UNL     1      53.527  -5.562 -18.828  1.00  0.00     0.028 A 
HETATM    8  C   UNL     1      54.477  -9.311 -15.806  1.00  0.00     0.157 C 
HETATM    9  C   UNL     1      53.806  -6.326 -19.976  1.00  0.00    -0.061 A 
HETATM   10  C   UNL     1      54.214  -7.670 -19.838  1.00  0.00     0.009 A 
HETATM   11  C   UNL     1      53.670  -5.729 -21.344  1.00  0.00     0.048 C 
ENDROOT
BRANCH   4  12
HETATM   12  C   UNL     1      53.858  -6.943 -13.743  1.00  0.00    -0.002 A 
HETATM   13  C   UNL     1      54.279  -8.068 -13.011  1.00  0.00     0.016 A 
HETATM   14  C   UNL     1      54.312  -8.049 -11.613  1.00  0.00     0.030 A 
HETATM   15  C   UNL     1      53.935  -6.900 -10.887  1.00  0.00     0.029 A 
HETATM   16  C   UNL     1      53.535  -5.766 -11.626  1.00  0.00     0.030 A 
HETATM   17  C   UNL     1      53.508  -5.787 -13.023  1.00  0.00     0.016 A 
BRANCH  15  18
HETATM   18  N   UNL     1      53.968  -6.879  -9.444  1.00  0.00    -0.390 N 
HETATM   19  C   UNL     1      53.656  -5.659  -8.712  1.00  0.00     0.149 C 
HETATM   20  C   UNL     1      54.316  -8.077  -8.692  1.00  0.00     0.149 C 
ENDBRANCH  15  18
ENDBRANCH   4  12
TORSDOF 2
ENDMDL
MODEL 4
REMARK VINA RESULT:      -9.2      1.680      7.962
REMARK  2 active torsions:
REMARK  status: ('A' for Active; 'I' for Inactive)
REMARK    1  A    between atoms: N_3  and  C_15 
REMARK    2  A    between atoms: C_5  and  C_7 
ROOT
HETATM    1  S   UNL     1      54.371  -8.374 -17.546  1.00  0.00    -0.069 SA
HETATM    2  N   UNL     1      53.778  -5.911 -17.630  1.00  0.00    -0.344 N 
HETATM    3  C   UNL     1      53.846  -6.364 -18.923  1.00  0.00     0.052 A 
HETATM    4  C   UNL     1      54.020  -6.925 -16.730  1.00  0.00     0.087 A 
HETATM    5  C   UNL     1      54.163  -7.706 -19.059  1.00  0.00     0.034 A 
HETATM    6  C   UNL     1      53.640  -5.589 -20.078  1.00  0.00     0.031 A 
HETATM    7  C   UNL     1      54.282  -8.331 -20.298  1.00  0.00     0.028 A 
HETATM    8  C   UNL     1      53.541  -4.492 -17.330  1.00  0.00     0.157 C 
HETATM    9  C   UNL     1      54.071  -7.563 -21.458  1.00  0.00    -0.061 A 
HETATM   10  C   UNL     1      53.752  -6.194 -21.340  1.00  0.00     0.009 A 
HETATM   11  C   UNL     1      54.186  -8.184 -22.818  1.00  0.00     0.048 C 
ENDROOT
BRANCH   4  12
HETATM   12  C   UNL     1      53.971  -6.871 -15.233  1.00  0.00    -0.002 A 
HETATM   13  C   UNL     1      53.621  -5.711 -14.519  1.00  0.00     0.016 A 
HETATM   14  C   UNL     1      53.566  -5.712 -13.122  1.00  0.00     0.030 A 
HETATM   15  C   UNL     1      53.851  -6.877 -12.379  1.00  0.00     0.029 A 
HETATM   16  C   UNL     1      54.180  -8.044 -13.100  1.00  0.00     0.030 A 
HETATM   17  C   UNL     1      54.229  -8.041 -14.496  1.00  0.00     0.016 A 
BRANCH  15  18
HETATM   18  N   UNL     1      53.796  -6.878 -10.936  1.00  0.00    -0.390 N 
HETATM   19  C   UNL     1      53.897  -8.126 -10.191  1.00  0.00     0.149 C 
HETATM   20  C   UNL     1      53.636  -5.633 -10.198  1.00  0.00     0.149 C 
ENDBRANCH  15  18
ENDBRANCH   4  12
TORSDOF 2
ENDMDL
MODEL 5
REMARK VINA RESULT:      -9.2      2.079      3.778
REMARK  2 active torsions:
REMARK  status: ('A' for Active; 'I' for Inactive)
REMARK    1  A    between atoms: N_3  and  C_15 
REMARK    2  A    between atoms: C_5  and  C_7 
ROOT
HETATM    1  S   UNL     1      54.313  -8.590 -12.337  1.00  0.00    -0.069 SA
HETATM    2  N   UNL     1      53.695  -6.133 -12.363  1.00  0.00    -0.344 N 
HETATM    3  C   UNL     1      53.832  -6.510 -11.051  1.00  0.00     0.052 A 
HETATM    4  C   UNL     1      53.960  -7.179 -13.217  1.00  0.00     0.087 A 
HETATM    5  C   UNL     1      54.172  -7.839 -10.855  1.00  0.00     0.034 A 
HETATM    6  C   UNL     1      53.643  -5.680  -9.932  1.00  0.00     0.031 A 
HETATM    7  C   UNL     1      54.343  -8.395  -9.590  1.00  0.00     0.028 A 
HETATM    8  C   UNL     1      53.250  -4.779 -12.724  1.00  0.00     0.157 C 
HETATM    9  C   UNL     1      54.161  -7.569  -8.466  1.00  0.00    -0.061 A 
HETATM   10  C   UNL     1      53.811  -6.214  -8.644  1.00  0.00     0.009 A 
HETATM   11  C   UNL     1      54.333  -8.114  -7.080  1.00  0.00     0.048 C 
ENDROOT
BRANCH   4  12
HETATM   12  C   UNL     1      53.994  -7.172 -14.715  1.00  0.00    -0.002 A 
HETATM   13  C   UNL     1      54.290  -8.315 -15.479  1.00  0.00     0.016 A 
HETATM   14  C   UNL     1      54.289  -8.269 -16.877  1.00  0.00     0.030 A 
HETATM   15  C   UNL     1      53.983  -7.079 -17.570  1.00  0.00     0.029 A 
HETATM   16  C   UNL     1      53.664  -5.941 -16.799  1.00  0.00     0.030 A 
HETATM   17  C   UNL     1      53.662  -5.992 -15.403  1.00  0.00     0.016 A 
BRANCH  15  18
HETATM   18  N   UNL     1      53.982  -7.031 -19.013  1.00  0.00    -0.390 N 
HETATM   19  C   UNL     1      54.246  -8.231 -19.796  1.00  0.00     0.149 C 
HETATM   20  C   UNL     1      53.720  -5.781 -19.714  1.00  0.00     0.149 C 
ENDBRANCH  15  18
ENDBRANCH   4  12
TORSDOF 2
ENDMDL
MODEL 6
REMARK VINA RESULT:      -9.0      1.503      2.349
REMARK  2 active torsions:
REMARK  status: ('A' for Active; 'I' for Inactive)
REMARK    1  A    between atoms: N_3  and  C_15 
REMARK    2  A    between atoms: C_5  and  C_7 
ROOT
HETATM    1  S   UNL     1      54.227  -8.540 -17.038  1.00  0.00    -0.069 SA
HETATM    2  N   UNL     1      53.732  -6.056 -17.076  1.00  0.00    -0.344 N 
HETATM    3  C   UNL     1      53.849  -6.433 -15.762  1.00  0.00     0.052 A 
HETATM    4  C   UNL     1      53.945  -7.118 -17.925  1.00  0.00     0.087 A 
HETATM    5  C   UNL     1      54.122  -7.776 -15.560  1.00  0.00     0.034 A 
HETATM    6  C   UNL     1      53.700  -5.589 -14.647  1.00  0.00     0.031 A 
HETATM    7  C   UNL     1      54.265  -8.334 -14.292  1.00  0.00     0.028 A 
HETATM    8  C   UNL     1      53.355  -4.684 -17.444  1.00  0.00     0.157 C 
HETATM    9  C   UNL     1      54.124  -7.495 -13.171  1.00  0.00    -0.061 A 
HETATM   10  C   UNL     1      53.841  -6.125 -13.357  1.00  0.00     0.009 A 
HETATM   11  C   UNL     1      54.267  -8.042 -11.783  1.00  0.00     0.048 C 
ENDROOT
BRANCH   4  12
HETATM   12  C   UNL     1      53.981  -7.120 -19.423  1.00  0.00    -0.002 A 
HETATM   13  C   UNL     1      54.243  -8.275 -20.181  1.00  0.00     0.016 A 
HETATM   14  C   UNL     1      54.245  -8.236 -21.579  1.00  0.00     0.030 A 
HETATM   15  C   UNL     1      53.974  -7.041 -22.278  1.00  0.00     0.029 A 
HETATM   16  C   UNL     1      53.689  -5.890 -21.514  1.00  0.00     0.030 A 
HETATM   17  C   UNL     1      53.684  -5.934 -20.117  1.00  0.00     0.016 A 
BRANCH  15  18
HETATM   18  N   UNL     1      53.976  -7.000 -23.722  1.00  0.00    -0.390 N 
HETATM   19  C   UNL     1      53.697  -5.757 -24.429  1.00  0.00     0.149 C 
HETATM   20  C   UNL     1      54.257  -8.200 -24.498  1.00  0.00     0.149 C 
ENDBRANCH  15  18
ENDBRANCH   4  12
TORSDOF 2
ENDMDL
MODEL 7
REMARK VINA RESULT:      -9.0      1.788      8.214
REMARK  2 active torsions:
REMARK  status: ('A' for Active; 'I' for Inactive)
REMARK    1  A    between atoms: N_3  and  C_15 
REMARK    2  A    between atoms: C_5  and  C_7 
ROOT
HETATM    1  S   UNL     1      53.385  -5.495 -20.949  1.00  0.00    -0.069 SA
HETATM    2  N   UNL     1      54.179  -7.901 -20.991  1.00  0.00    -0.344 N 
HETATM    3  C   UNL     1      54.099  -7.470 -22.292  1.00  0.00     0.052 A 
HETATM    4  C   UNL     1      53.839  -6.901 -20.108  1.00  0.00     0.087 A 
HETATM    5  C   UNL     1      53.675  -6.160 -22.450  1.00  0.00     0.034 A 
HETATM    6  C   UNL     1      54.389  -8.238 -23.433  1.00  0.00     0.031 A 
HETATM    7  C   UNL     1      53.527  -5.561 -23.698  1.00  0.00     0.028 A 
HETATM    8  C   UNL     1      54.527  -9.292 -20.670  1.00  0.00     0.157 C 
HETATM    9  C   UNL     1      53.821  -6.322 -24.845  1.00  0.00    -0.061 A 
HETATM   10  C   UNL     1      54.250  -7.659 -24.704  1.00  0.00     0.009 A 
HETATM   11  C   UNL     1      53.681  -5.728 -26.214  1.00  0.00     0.048 C 
ENDROOT
BRANCH   4  12
HETATM   12  C   UNL     1      53.864  -6.934 -18.611  1.00  0.00    -0.002 A 
HETATM   13  C   UNL     1      54.223  -8.078 -17.876  1.00  0.00     0.016 A 
HETATM   14  C   UNL     1      54.255  -8.058 -16.478  1.00  0.00     0.030 A 
HETATM   15  C   UNL     1      53.939  -6.888 -15.755  1.00  0.00     0.029 A 
HETATM   16  C   UNL     1      53.602  -5.736 -16.497  1.00  0.00     0.030 A 
HETATM   17  C   UNL     1      53.576  -5.759 -17.894  1.00  0.00     0.016 A 
BRANCH  15  18
HETATM   18  N   UNL     1      53.971  -6.867 -14.312  1.00  0.00    -0.390 N 
HETATM   19  C   UNL     1      54.340  -8.059 -13.560  1.00  0.00     0.149 C 
HETATM   20  C   UNL     1      53.634  -5.654 -13.580  1.00  0.00     0.149 C 
ENDBRANCH  15  18
ENDBRANCH   4  12
TORSDOF 2
ENDMDL
MODEL 8
REMARK VINA RESULT:      -8.9      3.336      9.556
REMARK  2 active torsions:
REMARK  status: ('A' for Active; 'I' for Inactive)
REMARK    1  A    between atoms: N_3  and  C_15 
REMARK    2  A    between atoms: C_5  and  C_7 
ROOT
HETATM    1  S   UNL     1      54.362  -8.393 -12.606  1.00  0.00    -0.069 SA
HETATM    2  N   UNL     1      53.784  -5.927 -12.704  1.00  0.00    -0.344 N 
HETATM    3  C   UNL     1      53.850  -6.388 -13.995  1.00  0.00     0.052 A 
HETATM    4  C   UNL     1      54.020  -6.937 -11.798  1.00  0.00     0.087 A 
HETATM    5  C   UNL     1      54.159  -7.732 -14.123  1.00  0.00     0.034 A 
HETATM    6  C   UNL     1      53.649  -5.618 -15.154  1.00  0.00     0.031 A 
HETATM    7  C   UNL     1      54.276  -8.365 -15.358  1.00  0.00     0.028 A 
HETATM    8  C   UNL     1      53.556  -4.505 -12.413  1.00  0.00     0.157 C 
HETATM    9  C   UNL     1      54.070  -7.602 -16.523  1.00  0.00    -0.061 A 
HETATM   10  C   UNL     1      53.758  -6.231 -16.413  1.00  0.00     0.009 A 
HETATM   11  C   UNL     1      54.182  -8.232 -17.879  1.00  0.00     0.048 C 
ENDROOT
BRANCH   4  12
HETATM   12  C   UNL     1      53.970  -6.875 -10.302  1.00  0.00    -0.002 A 
HETATM   13  C   UNL     1      53.608  -5.714  -9.595  1.00  0.00     0.016 A 
HETATM   14  C   UNL     1      53.554  -5.706  -8.198  1.00  0.00     0.030 A 
HETATM   15  C   UNL     1      53.850  -6.864  -7.448  1.00  0.00     0.029 A 
HETATM   16  C   UNL     1      54.191  -8.032  -8.161  1.00  0.00     0.030 A 
HETATM   17  C   UNL     1      54.240  -8.037  -9.557  1.00  0.00     0.016 A 
BRANCH  15  18
HETATM   18  N   UNL     1      53.795  -6.857  -6.005  1.00  0.00    -0.390 N 
HETATM   19  C   UNL     1      53.586  -5.612  -5.276  1.00  0.00     0.149 C 
HETATM   20  C   UNL     1      53.947  -8.093  -5.250  1.00  0.00     0.149 C 
ENDBRANCH  15  18
ENDBRANCH   4  12
TORSDOF 2
ENDMDL
MODEL 9
REMARK VINA RESULT:      -8.7      2.395      4.669
REMARK  2 active torsions:
REMARK  status: ('A' for Active; 'I' for Inactive)
REMARK    1  A    between atoms: N_3  and  C_15 
REMARK    2  A    between atoms: C_5  and  C_7 
ROOT
HETATM    1  S   UNL     1      53.539  -5.552 -20.107  1.00  0.00    -0.069 SA
HETATM    2  N   UNL     1      54.322  -7.959 -20.225  1.00  0.00    -0.344 N 
HETATM    3  C   UNL     1      54.176  -7.637 -18.899  1.00  0.00     0.052 A 
HETATM    4  C   UNL     1      53.976  -6.904 -21.039  1.00  0.00     0.087 A 
HETATM    5  C   UNL     1      53.748  -6.342 -18.654  1.00  0.00     0.034 A 
HETATM    6  C   UNL     1      54.434  -8.490 -17.812  1.00  0.00     0.031 A 
HETATM    7  C   UNL     1      53.555  -5.842 -17.369  1.00  0.00     0.028 A 
HETATM    8  C   UNL     1      54.854  -9.266 -20.637  1.00  0.00     0.157 C 
HETATM    9  C   UNL     1      53.806  -6.692 -16.275  1.00  0.00    -0.061 A 
HETATM   10  C   UNL     1      54.245  -8.013 -16.505  1.00  0.00     0.009 A 
HETATM   11  C   UNL     1      53.613  -6.207 -14.870  1.00  0.00     0.048 C 
ENDROOT
BRANCH   4  12
HETATM   12  C   UNL     1      53.925  -6.862 -22.536  1.00  0.00    -0.002 A 
HETATM   13  C   UNL     1      54.105  -8.002 -23.341  1.00  0.00     0.016 A 
HETATM   14  C   UNL     1      54.026  -7.921 -24.734  1.00  0.00     0.030 A 
HETATM   15  C   UNL     1      53.755  -6.699 -25.383  1.00  0.00     0.029 A 
HETATM   16  C   UNL     1      53.553  -5.562 -24.571  1.00  0.00     0.030 A 
HETATM   17  C   UNL     1      53.628  -5.647 -23.179  1.00  0.00     0.016 A 
BRANCH  15  18
HETATM   18  N   UNL     1      53.675  -6.614 -26.822  1.00  0.00    -0.390 N 
HETATM   19  C   UNL     1      53.189  -7.742 -27.606  1.00  0.00     0.149 C 
HETATM   20  C   UNL     1      54.080  -5.401 -27.519  1.00  0.00     0.149 C 
ENDBRANCH  15  18
ENDBRANCH   4  12
TORSDOF 2
ENDMDL
MODEL 10
REMARK VINA RESULT:      -8.7      2.531      8.691
REMARK  2 active torsions:
REMARK  status: ('A' for Active; 'I' for Inactive)
REMARK    1  A    between atoms: N_3  and  C_15 
REMARK    2  A    between atoms: C_5  and  C_7 
ROOT
HETATM    1  S   UNL     1      54.568  -8.665 -14.422  1.00  0.00    -0.069 SA
HETATM    2  N   UNL     1      53.699  -6.287 -14.335  1.00  0.00    -0.344 N 
HETATM    3  C   UNL     1      53.788  -6.646 -15.657  1.00  0.00     0.052 A 
HETATM    4  C   UNL     1      54.075  -7.320 -13.507  1.00  0.00     0.087 A 
HETATM    5  C   UNL     1      54.252  -7.931 -15.885  1.00  0.00     0.034 A 
HETATM    6  C   UNL     1      53.470  -5.828 -16.755  1.00  0.00     0.031 A 
HETATM    7  C   UNL     1      54.413  -8.459 -17.163  1.00  0.00     0.028 A 
HETATM    8  C   UNL     1      53.310  -4.926 -13.940  1.00  0.00     0.157 C 
HETATM    9  C   UNL     1      54.091  -7.648 -18.268  1.00  0.00    -0.061 A 
HETATM   10  C   UNL     1      53.621  -6.335 -18.055  1.00  0.00     0.009 A 
HETATM   11  C   UNL     1      54.244  -8.165 -19.666  1.00  0.00     0.048 C 
ENDROOT
BRANCH   4  12
HETATM   12  C   UNL     1      54.054  -7.368 -12.010  1.00  0.00    -0.002 A 
HETATM   13  C   UNL     1      54.411  -8.512 -11.275  1.00  0.00     0.016 A 
HETATM   14  C   UNL     1      54.399  -8.506  -9.877  1.00  0.00     0.030 A 
HETATM   15  C   UNL     1      54.038  -7.350  -9.153  1.00  0.00     0.029 A 
HETATM   16  C   UNL     1      53.702  -6.197  -9.894  1.00  0.00     0.030 A 
HETATM   17  C   UNL     1      53.720  -6.206 -11.291  1.00  0.00     0.016 A 
BRANCH  15  18
HETATM   18  N   UNL     1      54.024  -7.342  -7.709  1.00  0.00    -0.390 N 
HETATM   19  C   UNL     1      54.472  -8.507  -6.957  1.00  0.00     0.149 C 
HETATM   20  C   UNL     1      53.562  -6.171  -6.978  1.00  0.00     0.149 C 
ENDBRANCH  15  18
ENDBRANCH   4  12
TORSDOF 2
ENDMDL
MODEL 11
REMARK VINA RESULT:      -8.5      1.710      8.061
REMARK  2 active torsions:
REMARK  status: ('A' for Active; 'I' for Inactive)
REMARK    1  A    between atoms: N_3  and  C_15 
REMARK    2  A    between atoms: C_5  and  C_7 
ROOT
HETATM    1  S   UNL     1      54.517  -8.737 -19.755  1.00  0.00    -0.069 SA
HETATM    2  N   UNL     1      53.724  -6.332 -19.658  1.00  0.00    -0.344 N 
HETATM    3  C   UNL     1      53.791  -6.691 -20.980  1.00  0.00     0.052 A 
HETATM    4  C   UNL     1      54.074  -7.378 -18.834  1.00  0.00     0.087 A 
HETATM    5  C   UNL     1      54.212  -7.991 -21.214  1.00  0.00     0.034 A 
HETATM    6  C   UNL     1      53.490  -5.862 -22.075  1.00  0.00     0.031 A 
HETATM    7  C   UNL     1      54.346  -8.521 -22.495  1.00  0.00     0.028 A 
HETATM    8  C   UNL     1      53.382  -4.960 -19.258  1.00  0.00     0.157 C 
HETATM    9  C   UNL     1      54.040  -7.699 -23.595  1.00  0.00    -0.061 A 
HETATM   10  C   UNL     1      53.614  -6.372 -23.377  1.00  0.00     0.009 A 
HETATM   11  C   UNL     1      54.165  -8.218 -24.996  1.00  0.00     0.048 C 
ENDROOT
BRANCH   4  12
HETATM   12  C   UNL     1      54.064  -7.427 -17.337  1.00  0.00    -0.002 A 
HETATM   13  C   UNL     1      54.475  -8.556 -16.605  1.00  0.00     0.016 A 
HETATM   14  C   UNL     1      54.470  -8.550 -15.207  1.00  0.00     0.030 A 
HETATM   15  C   UNL     1      54.064  -7.411 -14.480  1.00  0.00     0.029 A 
HETATM   16  C   UNL     1      53.674  -6.274 -15.218  1.00  0.00     0.030 A 
HETATM   17  C   UNL     1      53.684  -6.281 -16.615  1.00  0.00     0.016 A 
BRANCH  15  18
HETATM   18  N   UNL     1      54.058  -7.405 -13.036  1.00  0.00    -0.390 N 
HETATM   19  C   UNL     1      54.603  -8.530 -12.287  1.00  0.00     0.149 C 
HETATM   20  C   UNL     1      53.506  -6.275 -12.301  1.00  0.00     0.149 C 
ENDBRANCH  15  18
ENDBRANCH   4  12
TORSDOF 2
ENDMDL
MODEL 12
REMARK VINA RESULT:      -8.2      5.060     11.219
REMARK  2 active torsions:
REMARK  status: ('A' for Active; 'I' for Inactive)
REMARK    1  A    between atoms: N_3  and  C_15 
REMARK    2  A    between atoms: C_5  and  C_7 
ROOT
HETATM    1  S   UNL     1      54.643  -8.826 -10.373  1.00  0.00    -0.069 SA
HETATM    2  N   UNL     1      53.817  -6.499  -9.804  1.00  0.00    -0.344 N 
HETATM    3  C   UNL     1      53.801  -6.619 -11.171  1.00  0.00     0.052 A 
HETATM    4  C   UNL     1      54.239  -7.663  -9.202  1.00  0.00     0.087 A 
HETATM    5  C   UNL     1      54.228  -7.845 -11.657  1.00  0.00     0.034 A 
HETATM    6  C   UNL     1      53.413  -5.621 -12.081  1.00  0.00     0.031 A 
HETATM    7  C   UNL     1      54.286  -8.139 -13.016  1.00  0.00     0.028 A 
HETATM    8  C   UNL     1      53.477  -5.229  -9.148  1.00  0.00     0.157 C 
HETATM    9  C   UNL     1      53.893  -7.147 -13.933  1.00  0.00    -0.061 A 
HETATM   10  C   UNL     1      53.459  -5.891 -13.458  1.00  0.00     0.009 A 
HETATM   11  C   UNL     1      53.933  -7.408 -15.408  1.00  0.00     0.048 C 
ENDROOT
BRANCH   4  12
HETATM   12  C   UNL     1      54.330  -7.973  -7.739  1.00  0.00    -0.002 A 
HETATM   13  C   UNL     1      53.665  -7.221  -6.754  1.00  0.00     0.016 A 
HETATM   14  C   UNL     1      53.759  -7.560  -5.401  1.00  0.00     0.030 A 
HETATM   15  C   UNL     1      54.516  -8.672  -4.975  1.00  0.00     0.029 A 
HETATM   16  C   UNL     1      55.163  -9.437  -5.969  1.00  0.00     0.030 A 
HETATM   17  C   UNL     1      55.063  -9.098  -7.320  1.00  0.00     0.016 A 
BRANCH  15  18
HETATM   18  N   UNL     1      54.615  -9.022  -3.578  1.00  0.00    -0.390 N 
HETATM   19  C   UNL     1      54.349  -8.030  -2.544  1.00  0.00     0.149 C 
HETATM   20  C   UNL     1      54.985 -10.372  -3.175  1.00  0.00     0.149 C 
ENDBRANCH  15  18
ENDBRANCH   4  12
TORSDOF 2
ENDMDL
MODEL 13
REMARK VINA RESULT:      -8.2      2.386      8.880
REMARK  2 active torsions:
REMARK  status: ('A' for Active; 'I' for Inactive)
REMARK    1  A    between atoms: N_3  and  C_15 
REMARK    2  A    between atoms: C_5  and  C_7 
ROOT
HETATM    1  S   UNL     1      54.318  -8.450 -22.184  1.00  0.00    -0.069 SA
HETATM    2  N   UNL     1      53.776  -5.974 -22.210  1.00  0.00    -0.344 N 
HETATM    3  C   UNL     1      53.833  -6.398 -23.514  1.00  0.00     0.052 A 
HETATM    4  C   UNL     1      53.998  -7.013 -21.334  1.00  0.00     0.087 A 
HETATM    5  C   UNL     1      54.122  -7.743 -23.681  1.00  0.00     0.034 A 
HETATM    6  C   UNL     1      53.642  -5.592 -24.650  1.00  0.00     0.031 A 
HETATM    7  C   UNL     1      54.227  -8.341 -24.934  1.00  0.00     0.028 A 
HETATM    8  C   UNL     1      53.569  -4.558 -21.878  1.00  0.00     0.157 C 
HETATM    9  C   UNL     1      54.032  -7.543 -26.076  1.00  0.00    -0.061 A 
HETATM   10  C   UNL     1      53.740  -6.170 -25.926  1.00  0.00     0.009 A 
HETATM   11  C   UNL     1      54.132  -8.134 -27.450  1.00  0.00     0.048 C 
ENDROOT
BRANCH   4  12
HETATM   12  C   UNL     1      53.952  -6.993 -19.837  1.00  0.00    -0.002 A 
HETATM   13  C   UNL     1      54.325  -8.094 -19.044  1.00  0.00     0.016 A 
HETATM   14  C   UNL     1      54.287  -8.024 -17.648  1.00  0.00     0.030 A 
HETATM   15  C   UNL     1      53.884  -6.847 -16.984  1.00  0.00     0.029 A 
HETATM   16  C   UNL     1      53.532  -5.738 -17.783  1.00  0.00     0.030 A 
HETATM   17  C   UNL     1      53.575  -5.809 -19.177  1.00  0.00     0.016 A 
BRANCH  15  18
HETATM   18  N   UNL     1      53.844  -6.774 -15.543  1.00  0.00    -0.390 N 
HETATM   19  C   UNL     1      53.641  -5.499 -14.869  1.00  0.00     0.149 C 
HETATM   20  C   UNL     1      54.008  -7.975 -14.734  1.00  0.00     0.149 C 
ENDBRANCH  15  18
ENDBRANCH   4  12
TORSDOF 2
ENDMDL
MODEL 14
REMARK VINA RESULT:      -8.0      4.543      8.075
REMARK  2 active torsions:
REMARK  status: ('A' for Active; 'I' for Inactive)
REMARK    1  A    between atoms: N_3  and  C_15 
REMARK    2  A    between atoms: C_5  and  C_7 
ROOT
HETATM    1  S   UNL     1      54.376  -8.710  -7.703  1.00  0.00    -0.069 SA
HETATM    2  N   UNL     1      53.690  -6.270  -7.705  1.00  0.00    -0.344 N 
HETATM    3  C   UNL     1      53.841  -6.655  -6.397  1.00  0.00     0.052 A 
HETATM    4  C   UNL     1      53.981  -7.302  -8.569  1.00  0.00     0.087 A 
HETATM    5  C   UNL     1      54.219  -7.976  -6.214  1.00  0.00     0.034 A 
HETATM    6  C   UNL     1      53.633  -5.840  -5.270  1.00  0.00     0.031 A 
HETATM    7  C   UNL     1      54.409  -8.538  -4.954  1.00  0.00     0.028 A 
HETATM    8  C   UNL     1      53.207  -4.927  -8.053  1.00  0.00     0.157 C 
HETATM    9  C   UNL     1      54.209  -7.727  -3.822  1.00  0.00    -0.061 A 
HETATM   10  C   UNL     1      53.820  -6.381  -3.988  1.00  0.00     0.009 A 
HETATM   11  C   UNL     1      54.400  -8.279  -2.442  1.00  0.00     0.048 C 
ENDROOT
BRANCH   4  12
HETATM   12  C   UNL     1      54.010  -7.281 -10.067  1.00  0.00    -0.002 A 
HETATM   13  C   UNL     1      54.363  -8.401 -10.842  1.00  0.00     0.016 A 
HETATM   14  C   UNL     1      54.355  -8.344 -12.239  1.00  0.00     0.030 A 
HETATM   15  C   UNL     1      53.984  -7.167 -12.921  1.00  0.00     0.029 A 
HETATM   16  C   UNL     1      53.610  -6.052 -12.141  1.00  0.00     0.030 A 
HETATM   17  C   UNL     1      53.614  -6.114 -10.745  1.00  0.00     0.016 A 
BRANCH  15  18
HETATM   18  N   UNL     1      53.977  -7.106 -14.364  1.00  0.00    -0.390 N 
HETATM   19  C   UNL     1      53.618  -5.874 -15.053  1.00  0.00     0.149 C 
HETATM   20  C   UNL     1      54.327  -8.276 -15.158  1.00  0.00     0.149 C 
ENDBRANCH  15  18
ENDBRANCH   4  12
TORSDOF 2
ENDMDL
MODEL 15
REMARK VINA RESULT:      -7.6     19.623     22.001
REMARK  2 active torsions:
REMARK  status: ('A' for Active; 'I' for Inactive)
REMARK    1  A    between atoms: N_3  and  C_15 
REMARK    2  A    between atoms: C_5  and  C_7 
ROOT
HETATM    1  S   UNL     1      40.110   6.087 -16.234  1.00  0.00    -0.069 SA
HETATM    2  N   UNL     1      39.164   8.437 -16.286  1.00  0.00    -0.344 N 
HETATM    3  C   UNL     1      39.273   8.007 -17.585  1.00  0.00     0.052 A 
HETATM    4  C   UNL     1      39.567   7.464 -15.399  1.00  0.00     0.087 A 
HETATM    5  C   UNL     1      39.780   6.726 -17.738  1.00  0.00     0.034 A 
HETATM    6  C   UNL     1      38.936   8.751 -18.729  1.00  0.00     0.031 A 
HETATM    7  C   UNL     1      39.967   6.133 -18.983  1.00  0.00     0.028 A 
HETATM    8  C   UNL     1      38.728   9.804 -15.971  1.00  0.00     0.157 C 
HETATM    9  C   UNL     1      39.626   6.869 -20.133  1.00  0.00    -0.061 A 
HETATM   10  C   UNL     1      39.112   8.176 -19.998  1.00  0.00     0.009 A 
HETATM   11  C   UNL     1      39.805   6.280 -21.500  1.00  0.00     0.048 C 
ENDROOT
BRANCH   4  12
HETATM   12  C   UNL     1      39.537   7.501 -13.902  1.00  0.00    -0.002 A 
HETATM   13  C   UNL     1      39.063   8.606 -13.172  1.00  0.00     0.016 A 
HETATM   14  C   UNL     1      39.033   8.589 -11.774  1.00  0.00     0.030 A 
HETATM   15  C   UNL     1      39.467   7.461 -11.046  1.00  0.00     0.029 A 
HETATM   16  C   UNL     1      39.920   6.346 -11.783  1.00  0.00     0.030 A 
HETATM   17  C   UNL     1      39.945   6.365 -13.179  1.00  0.00     0.016 A 
BRANCH  15  18
HETATM   18  N   UNL     1      39.436   7.443  -9.603  1.00  0.00    -0.390 N 
HETATM   19  C   UNL     1      39.845   6.253  -8.867  1.00  0.00     0.149 C 
HETATM   20  C   UNL     1      38.996   8.612  -8.854  1.00  0.00     0.149 C 
ENDBRANCH  15  18
ENDBRANCH   4  12
TORSDOF 2
ENDMDL
MODEL 16
REMARK VINA RESULT:      -7.6     19.631     20.929
REMARK  2 active torsions:
REMARK  status: ('A' for Active; 'I' for Inactive)
REMARK    1  A    between atoms: N_3  and  C_15 
REMARK    2  A    between atoms: C_5  and  C_7 
ROOT
HETATM    1  S   UNL     1      40.077   6.005 -11.369  1.00  0.00    -0.069 SA
HETATM    2  N   UNL     1      39.015   8.305 -11.310  1.00  0.00    -0.344 N 
HETATM    3  C   UNL     1      39.226   7.914 -10.012  1.00  0.00     0.052 A 
HETATM    4  C   UNL     1      39.464   7.355 -12.200  1.00  0.00     0.087 A 
HETATM    5  C   UNL     1      39.808   6.665  -9.862  1.00  0.00     0.034 A 
HETATM    6  C   UNL     1      38.893   8.656  -8.865  1.00  0.00     0.031 A 
HETATM    7  C   UNL     1      40.086   6.107  -8.617  1.00  0.00     0.028 A 
HETATM    8  C   UNL     1      38.325   9.564 -11.624  1.00  0.00     0.157 C 
HETATM    9  C   UNL     1      39.761   6.846  -7.465  1.00  0.00    -0.061 A 
HETATM   10  C   UNL     1      39.165   8.118  -7.597  1.00  0.00     0.009 A 
HETATM   11  C   UNL     1      40.039   6.295  -6.099  1.00  0.00     0.048 C 
ENDROOT
BRANCH   4  12
HETATM   12  C   UNL     1      39.488   7.419 -13.697  1.00  0.00    -0.002 A 
HETATM   13  C   UNL     1      39.264   8.607 -14.415  1.00  0.00     0.016 A 
HETATM   14  C   UNL     1      39.318   8.627 -15.812  1.00  0.00     0.030 A 
HETATM   15  C   UNL     1      39.607   7.460 -16.550  1.00  0.00     0.029 A 
HETATM   16  C   UNL     1      39.854   6.276 -15.824  1.00  0.00     0.030 A 
HETATM   17  C   UNL     1      39.804   6.261 -14.428  1.00  0.00     0.016 A 
BRANCH  15  18
HETATM   18  N   UNL     1      39.662   7.480 -17.993  1.00  0.00    -0.390 N 
HETATM   19  C   UNL     1      39.896   6.252 -18.743  1.00  0.00     0.149 C 
HETATM   20  C   UNL     1      39.485   8.726 -18.726  1.00  0.00     0.149 C 
ENDBRANCH  15  18
ENDBRANCH   4  12
TORSDOF 2
ENDMDL
MODEL 17
REMARK VINA RESULT:      -7.5     19.971     22.892
REMARK  2 active torsions:
REMARK  status: ('A' for Active; 'I' for Inactive)
REMARK    1  A    between atoms: N_3  and  C_15 
REMARK    2  A    between atoms: C_5  and  C_7 
ROOT
HETATM    1  S   UNL     1      40.125   6.076 -11.379  1.00  0.00    -0.069 SA
HETATM    2  N   UNL     1      39.175   8.425 -11.435  1.00  0.00    -0.344 N 
HETATM    3  C   UNL     1      39.286   7.993 -12.733  1.00  0.00     0.052 A 
HETATM    4  C   UNL     1      39.580   7.454 -10.546  1.00  0.00     0.087 A 
HETATM    5  C   UNL     1      39.794   6.713 -12.884  1.00  0.00     0.034 A 
HETATM    6  C   UNL     1      38.948   8.735 -13.878  1.00  0.00     0.031 A 
HETATM    7  C   UNL     1      39.983   6.119 -14.128  1.00  0.00     0.028 A 
HETATM    8  C   UNL     1      38.737   9.792 -11.121  1.00  0.00     0.157 C 
HETATM    9  C   UNL     1      39.641   6.853 -15.279  1.00  0.00    -0.061 A 
HETATM   10  C   UNL     1      39.125   8.159 -15.146  1.00  0.00     0.009 A 
HETATM   11  C   UNL     1      39.822   6.262 -16.645  1.00  0.00     0.048 C 
ENDROOT
BRANCH   4  12
HETATM   12  C   UNL     1      39.550   7.493  -9.049  1.00  0.00    -0.002 A 
HETATM   13  C   UNL     1      39.093   8.606  -8.320  1.00  0.00     0.016 A 
HETATM   14  C   UNL     1      39.062   8.591  -6.923  1.00  0.00     0.030 A 
HETATM   15  C   UNL     1      39.476   7.457  -6.193  1.00  0.00     0.029 A 
HETATM   16  C   UNL     1      39.912   6.334  -6.928  1.00  0.00     0.030 A 
HETATM   17  C   UNL     1      39.938   6.351  -8.325  1.00  0.00     0.016 A 
BRANCH  15  18
HETATM   18  N   UNL     1      39.445   7.440  -4.750  1.00  0.00    -0.390 N 
HETATM   19  C   UNL     1      39.852   6.251  -4.012  1.00  0.00     0.149 C 
HETATM   20  C   UNL     1      39.005   8.611  -4.003  1.00  0.00     0.149 C 
ENDBRANCH  15  18
ENDBRANCH   4  12
TORSDOF 2
ENDMDL
MODEL 18
REMARK VINA RESULT:      -7.5     19.775     22.206
REMARK  2 active torsions:
REMARK  status: ('A' for Active; 'I' for Inactive)
REMARK    1  A    between atoms: N_3  and  C_15 
REMARK    2  A    between atoms: C_5  and  C_7 
ROOT
HETATM    1  S   UNL     1      39.901   6.100 -14.737  1.00  0.00    -0.069 SA
HETATM    2  N   UNL     1      39.310   8.564 -14.741  1.00  0.00    -0.344 N 
HETATM    3  C   UNL     1      39.375   8.154 -16.049  1.00  0.00     0.052 A 
HETATM    4  C   UNL     1      39.553   7.523 -13.874  1.00  0.00     0.087 A 
HETATM    5  C   UNL     1      39.691   6.817 -16.228  1.00  0.00     0.034 A 
HETATM    6  C   UNL     1      39.167   8.966 -17.177  1.00  0.00     0.031 A 
HETATM    7  C   UNL     1      39.807   6.232 -17.486  1.00  0.00     0.028 A 
HETATM    8  C   UNL     1      39.074   9.973 -14.396  1.00  0.00     0.157 C 
HETATM    9  C   UNL     1      39.595   7.037 -18.621  1.00  0.00    -0.061 A 
HETATM   10  C   UNL     1      39.276   8.402 -18.458  1.00  0.00     0.009 A 
HETATM   11  C   UNL     1      39.706   6.460 -20.000  1.00  0.00     0.048 C 
ENDROOT
BRANCH   4  12
HETATM   12  C   UNL     1      39.507   7.528 -12.377  1.00  0.00    -0.002 A 
HETATM   13  C   UNL     1      39.003   8.608 -11.630  1.00  0.00     0.016 A 
HETATM   14  C   UNL     1      38.958   8.562 -10.233  1.00  0.00     0.030 A 
HETATM   15  C   UNL     1      39.407   7.428  -9.524  1.00  0.00     0.029 A 
HETATM   16  C   UNL     1      39.891   6.338 -10.277  1.00  0.00     0.030 A 
HETATM   17  C   UNL     1      39.930   6.386 -11.673  1.00  0.00     0.016 A 
BRANCH  15  18
HETATM   18  N   UNL     1      39.362   7.380  -8.081  1.00  0.00    -0.390 N 
HETATM   19  C   UNL     1      38.698   8.433  -7.324  1.00  0.00     0.149 C 
HETATM   20  C   UNL     1      39.980   6.279  -7.356  1.00  0.00     0.149 C 
ENDBRANCH  15  18
ENDBRANCH   4  12
TORSDOF 2
ENDMDL
MODEL 19
REMARK VINA RESULT:      -7.3     19.916     21.498
REMARK  2 active torsions:
REMARK  status: ('A' for Active; 'I' for Inactive)
REMARK    1  A    between atoms: N_3  and  C_15 
REMARK    2  A    between atoms: C_5  and  C_7 
ROOT
HETATM    1  S   UNL     1      39.852   6.058  -9.547  1.00  0.00    -0.069 SA
HETATM    2  N   UNL     1      39.003   8.445  -9.501  1.00  0.00    -0.344 N 
HETATM    3  C   UNL     1      39.186   8.048  -8.201  1.00  0.00     0.052 A 
HETATM    4  C   UNL     1      39.358   7.452 -10.386  1.00  0.00     0.087 A 
HETATM    5  C   UNL     1      39.653   6.753  -8.044  1.00  0.00     0.034 A 
HETATM    6  C   UNL     1      38.929   8.826  -7.059  1.00  0.00     0.031 A 
HETATM    7  C   UNL     1      39.887   6.182  -6.796  1.00  0.00     0.028 A 
HETATM    8  C   UNL     1      38.428   9.759  -9.822  1.00  0.00     0.157 C 
HETATM    9  C   UNL     1      39.638   6.956  -5.648  1.00  0.00    -0.061 A 
HETATM   10  C   UNL     1      39.158   8.276  -5.787  1.00  0.00     0.009 A 
HETATM   11  C   UNL     1      39.874   6.393  -4.279  1.00  0.00     0.048 C 
ENDROOT
BRANCH   4  12
HETATM   12  C   UNL     1      39.378   7.502 -11.883  1.00  0.00    -0.002 A 
HETATM   13  C   UNL     1      39.027   8.650 -12.615  1.00  0.00     0.016 A 
HETATM   14  C   UNL     1      39.082   8.660 -14.012  1.00  0.00     0.030 A 
HETATM   15  C   UNL     1      39.499   7.524 -14.737  1.00  0.00     0.029 A 
HETATM   16  C   UNL     1      39.872   6.382 -13.997  1.00  0.00     0.030 A 
HETATM   17  C   UNL     1      39.820   6.377 -12.601  1.00  0.00     0.016 A 
BRANCH  15  18
HETATM   18  N   UNL     1      39.554   7.533 -16.180  1.00  0.00    -0.390 N 
HETATM   19  C   UNL     1      39.991   6.352 -16.913  1.00  0.00     0.149 C 
HETATM   20  C   UNL     1      39.176   8.723 -16.930  1.00  0.00     0.149 C 
ENDBRANCH  15  18
ENDBRANCH   4  12
TORSDOF 2
ENDMDL
MODEL 20
REMARK VINA RESULT:      -7.3     19.437     20.535
REMARK  2 active torsions:
REMARK  status: ('A' for Active; 'I' for Inactive)
REMARK    1  A    between atoms: N_3  and  C_15 
REMARK    2  A    between atoms: C_5  and  C_7 
ROOT
HETATM    1  S   UNL     1      40.025   6.015 -16.229  1.00  0.00    -0.069 SA
HETATM    2  N   UNL     1      39.022   8.342 -16.167  1.00  0.00    -0.344 N 
HETATM    3  C   UNL     1      39.225   7.945 -14.869  1.00  0.00     0.052 A 
HETATM    4  C   UNL     1      39.446   7.382 -17.058  1.00  0.00     0.087 A 
HETATM    5  C   UNL     1      39.774   6.681 -14.721  1.00  0.00     0.034 A 
HETATM    6  C   UNL     1      38.912   8.694 -13.721  1.00  0.00     0.031 A 
HETATM    7  C   UNL     1      40.039   6.115 -13.477  1.00  0.00     0.028 A 
HETATM    8  C   UNL     1      38.364   9.618 -16.479  1.00  0.00     0.157 C 
HETATM    9  C   UNL     1      39.735   6.861 -12.324  1.00  0.00    -0.061 A 
HETATM   10  C   UNL     1      39.171   8.149 -12.454  1.00  0.00     0.009 A 
HETATM   11  C   UNL     1      40.000   6.302 -10.959  1.00  0.00     0.048 C 
ENDROOT
BRANCH   4  12
HETATM   12  C   UNL     1      39.469   7.447 -18.555  1.00  0.00    -0.002 A 
HETATM   13  C   UNL     1      39.230   8.632 -19.273  1.00  0.00     0.016 A 
HETATM   14  C   UNL     1      39.284   8.653 -20.670  1.00  0.00     0.030 A 
HETATM   15  C   UNL     1      39.590   7.490 -21.408  1.00  0.00     0.029 A 
HETATM   16  C   UNL     1      39.852   6.309 -20.683  1.00  0.00     0.030 A 
HETATM   17  C   UNL     1      39.801   6.293 -19.287  1.00  0.00     0.016 A 
BRANCH  15  18
HETATM   18  N   UNL     1      39.645   7.510 -22.851  1.00  0.00    -0.390 N 
HETATM   19  C   UNL     1      39.871   6.283 -23.602  1.00  0.00     0.149 C 
HETATM   20  C   UNL     1      39.476   8.758 -23.583  1.00  0.00     0.149 C 
ENDBRANCH  15  18
ENDBRANCH   4  12
TORSDOF 2
ENDMDL
