MODEL 1
REMARK VINA RESULT:      -6.1      0.000      0.000
REMARK  16 active torsions:
REMARK  status: ('A' for Active; 'I' for Inactive)
REMARK    1  A    between atoms: O_1  and  C_20 
REMARK    2  A    between atoms: C_3  and  C_4 
REMARK    3  A    between atoms: C_3  and  C_5 
REMARK    4  A    between atoms: C_4  and  C_8 
REMARK    5  A    between atoms: C_5  and  C_11 
REMARK    6  A    between atoms: C_6  and  C_7 
REMARK    7  A    between atoms: C_6  and  C_9 
REMARK    8  A    between atoms: C_7  and  C_10 
REMARK    9  A    between atoms: C_8  and  C_12 
REMARK   10  A    between atoms: C_9  and  C_13 
REMARK   11  A    between atoms: C_10  and  C_14 
REMARK   12  A    between atoms: C_11  and  C_15 
REMARK   13  A    between atoms: C_12  and  C_16 
REMARK   14  A    between atoms: C_13  and  C_17 
REMARK   15  A    between atoms: C_14  and  C_18 
REMARK   16  A    between atoms: C_18  and  C_20 
ROOT
HETATM    1  O   UNL     1      47.592  -6.935 -16.727  1.00  0.00    -0.776 OA
HETATM    2  H   UNL     1      47.824  -7.778 -17.143  1.00  0.00     0.167 HD
ENDROOT
BRANCH   1   3
HETATM    3  C   UNL     1      47.942  -6.657 -15.454  1.00  0.00     0.139 C 
HETATM    4  O   UNL     1      48.845  -7.289 -14.921  1.00  0.00    -0.650 OA
BRANCH   3   5
HETATM    5  C   UNL     1      47.209  -5.570 -14.714  1.00  0.00     0.110 C 
BRANCH   5   6
HETATM    6  C   UNL     1      46.619  -6.041 -13.378  1.00  0.00     0.010 C 
BRANCH   6   7
HETATM    7  C   UNL     1      47.576  -5.740 -12.218  1.00  0.00     0.001 C 
BRANCH   7   8
HETATM    8  C   UNL     1      47.965  -7.027 -11.482  1.00  0.00     0.000 C 
BRANCH   8   9
HETATM    9  C   UNL     1      48.200  -6.760  -9.991  1.00  0.00     0.000 C 
BRANCH   9  10
HETATM   10  C   UNL     1      47.134  -5.811  -9.434  1.00  0.00     0.004 C 
BRANCH  10  11
HETATM   11  C   UNL     1      46.664  -6.251  -8.045  1.00  0.00     0.027 C 
BRANCH  11  12
HETATM   12  C   UNL     1      47.814  -6.150  -7.071  1.00  0.00    -0.031 C 
HETATM   13  C   UNL     1      47.734  -5.863  -5.757  1.00  0.00    -0.031 C 
BRANCH  13  14
HETATM   14  C   UNL     1      46.479  -5.570  -4.961  1.00  0.00     0.027 C 
BRANCH  14  15
HETATM   15  C   UNL     1      46.580  -6.134  -3.533  1.00  0.00     0.004 C 
BRANCH  15  16
HETATM   16  C   UNL     1      47.095  -5.126  -2.486  1.00  0.00     0.000 C 
BRANCH  16  17
HETATM   17  C   UNL     1      47.556  -5.792  -1.179  1.00  0.00     0.000 C 
BRANCH  17  18
HETATM   18  C   UNL     1      48.195  -4.768  -0.232  1.00  0.00     0.000 C 
BRANCH  18  19
HETATM   19  C   UNL     1      49.598  -5.216   0.195  1.00  0.00    -0.000 C 
BRANCH  19  20
HETATM   20  C   UNL     1      50.657  -4.189  -0.225  1.00  0.00    -0.005 C 
HETATM   21  C   UNL     1      52.057  -4.793  -0.181  1.00  0.00     0.005 C 
ENDBRANCH  19  20
ENDBRANCH  18  19
ENDBRANCH  17  18
ENDBRANCH  16  17
ENDBRANCH  15  16
ENDBRANCH  14  15
ENDBRANCH  13  14
ENDBRANCH  11  12
ENDBRANCH  10  11
ENDBRANCH   9  10
ENDBRANCH   8   9
ENDBRANCH   7   8
ENDBRANCH   6   7
ENDBRANCH   5   6
ENDBRANCH   3   5
ENDBRANCH   1   3
TORSDOF 16
ENDMDL
MODEL 2
REMARK VINA RESULT:      -5.9      1.505      2.294
REMARK  16 active torsions:
REMARK  status: ('A' for Active; 'I' for Inactive)
REMARK    1  A    between atoms: O_1  and  C_20 
REMARK    2  A    between atoms: C_3  and  C_4 
REMARK    3  A    between atoms: C_3  and  C_5 
REMARK    4  A    between atoms: C_4  and  C_8 
REMARK    5  A    between atoms: C_5  and  C_11 
REMARK    6  A    between atoms: C_6  and  C_7 
REMARK    7  A    between atoms: C_6  and  C_9 
REMARK    8  A    between atoms: C_7  and  C_10 
REMARK    9  A    between atoms: C_8  and  C_12 
REMARK   10  A    between atoms: C_9  and  C_13 
REMARK   11  A    between atoms: C_10  and  C_14 
REMARK   12  A    between atoms: C_11  and  C_15 
REMARK   13  A    between atoms: C_12  and  C_16 
REMARK   14  A    between atoms: C_13  and  C_17 
REMARK   15  A    between atoms: C_14  and  C_18 
REMARK   16  A    between atoms: C_18  and  C_20 
ROOT
HETATM    1  O   UNL     1      47.093  -6.492 -18.255  1.00  0.00    -0.776 OA
HETATM    2  H   UNL     1      47.680  -6.777 -18.970  1.00  0.00     0.167 HD
ENDROOT
BRANCH   1   3
HETATM    3  C   UNL     1      47.579  -5.980 -17.106  1.00  0.00     0.139 C 
HETATM    4  O   UNL     1      48.737  -5.587 -17.058  1.00  0.00    -0.650 OA
BRANCH   3   5
HETATM    5  C   UNL     1      46.679  -5.904 -15.901  1.00  0.00     0.110 C 
BRANCH   5   6
HETATM    6  C   UNL     1      47.449  -5.797 -14.578  1.00  0.00     0.010 C 
BRANCH   6   7
HETATM    7  C   UNL     1      46.488  -5.735 -13.384  1.00  0.00     0.001 C 
BRANCH   7   8
HETATM    8  C   UNL     1      47.112  -4.961 -12.218  1.00  0.00     0.000 C 
BRANCH   8   9
HETATM    9  C   UNL     1      46.962  -5.731 -10.901  1.00  0.00     0.000 C 
BRANCH   9  10
HETATM   10  C   UNL     1      48.086  -6.760 -10.742  1.00  0.00     0.004 C 
BRANCH  10  11
HETATM   11  C   UNL     1      48.334  -7.093  -9.269  1.00  0.00     0.027 C 
BRANCH  11  12
HETATM   12  C   UNL     1      47.672  -6.050  -8.400  1.00  0.00    -0.031 C 
HETATM   13  C   UNL     1      47.561  -6.073  -7.057  1.00  0.00    -0.031 C 
BRANCH  13  14
HETATM   14  C   UNL     1      48.066  -7.147  -6.117  1.00  0.00     0.027 C 
BRANCH  14  15
HETATM   15  C   UNL     1      48.141  -6.630  -4.670  1.00  0.00     0.004 C 
BRANCH  15  16
HETATM   16  C   UNL     1      46.835  -5.995  -4.152  1.00  0.00     0.000 C 
BRANCH  16  17
HETATM   17  C   UNL     1      46.965  -5.407  -2.737  1.00  0.00     0.000 C 
BRANCH  17  18
HETATM   18  C   UNL     1      47.944  -6.227  -1.886  1.00  0.00     0.000 C 
BRANCH  18  19
HETATM   19  C   UNL     1      48.369  -5.450  -0.634  1.00  0.00    -0.000 C 
BRANCH  19  20
HETATM   20  C   UNL     1      47.468  -4.229  -0.410  1.00  0.00    -0.005 C 
HETATM   21  C   UNL     1      46.724  -4.331   0.918  1.00  0.00     0.005 C 
ENDBRANCH  19  20
ENDBRANCH  18  19
ENDBRANCH  17  18
ENDBRANCH  16  17
ENDBRANCH  15  16
ENDBRANCH  14  15
ENDBRANCH  13  14
ENDBRANCH  11  12
ENDBRANCH  10  11
ENDBRANCH   9  10
ENDBRANCH   8   9
ENDBRANCH   7   8
ENDBRANCH   6   7
ENDBRANCH   5   6
ENDBRANCH   3   5
ENDBRANCH   1   3
TORSDOF 16
ENDMDL
MODEL 3
REMARK VINA RESULT:      -5.4     20.683     22.621
REMARK  16 active torsions:
REMARK  status: ('A' for Active; 'I' for Inactive)
REMARK    1  A    between atoms: O_1  and  C_20 
REMARK    2  A    between atoms: C_3  and  C_4 
REMARK    3  A    between atoms: C_3  and  C_5 
REMARK    4  A    between atoms: C_4  and  C_8 
REMARK    5  A    between atoms: C_5  and  C_11 
REMARK    6  A    between atoms: C_6  and  C_7 
REMARK    7  A    between atoms: C_6  and  C_9 
REMARK    8  A    between atoms: C_7  and  C_10 
REMARK    9  A    between atoms: C_8  and  C_12 
REMARK   10  A    between atoms: C_9  and  C_13 
REMARK   11  A    between atoms: C_10  and  C_14 
REMARK   12  A    between atoms: C_11  and  C_15 
REMARK   13  A    between atoms: C_12  and  C_16 
REMARK   14  A    between atoms: C_13  and  C_17 
REMARK   15  A    between atoms: C_14  and  C_18 
REMARK   16  A    between atoms: C_18  and  C_20 
ROOT
HETATM    1  O   UNL     1      29.009  10.630 -11.196  1.00  0.00    -0.776 OA
HETATM    2  H   UNL     1      29.047  11.591 -11.310  1.00  0.00     0.167 HD
ENDROOT
BRANCH   1   3
HETATM    3  C   UNL     1      29.061  10.063  -9.973  1.00  0.00     0.139 C 
HETATM    4  O   UNL     1      28.349  10.491  -9.074  1.00  0.00    -0.650 OA
BRANCH   3   5
HETATM    5  C   UNL     1      30.000   8.909  -9.741  1.00  0.00     0.110 C 
BRANCH   5   6
HETATM    6  C   UNL     1      31.145   9.248  -8.777  1.00  0.00     0.010 C 
BRANCH   6   7
HETATM    7  C   UNL     1      32.478   9.368  -9.526  1.00  0.00     0.001 C 
BRANCH   7   8
HETATM    8  C   UNL     1      33.619   8.745  -8.715  1.00  0.00     0.000 C 
BRANCH   8   9
HETATM    9  C   UNL     1      33.264   8.676  -7.225  1.00  0.00     0.000 C 
BRANCH   9  10
HETATM   10  C   UNL     1      34.080   7.587  -6.522  1.00  0.00     0.004 C 
BRANCH  10  11
HETATM   11  C   UNL     1      33.172   6.530  -5.889  1.00  0.00     0.027 C 
BRANCH  11  12
HETATM   12  C   UNL     1      31.738   7.000  -5.946  1.00  0.00    -0.031 C 
HETATM   13  C   UNL     1      30.723   6.413  -6.611  1.00  0.00    -0.031 C 
BRANCH  13  14
HETATM   14  C   UNL     1      30.789   5.158  -7.454  1.00  0.00     0.027 C 
BRANCH  14  15
HETATM   15  C   UNL     1      31.123   5.489  -8.920  1.00  0.00     0.004 C 
BRANCH  15  16
HETATM   16  C   UNL     1      32.616   5.351  -9.280  1.00  0.00     0.000 C 
BRANCH  16  17
HETATM   17  C   UNL     1      32.858   5.084 -10.774  1.00  0.00     0.000 C 
BRANCH  17  18
HETATM   18  C   UNL     1      33.050   6.396 -11.546  1.00  0.00     0.000 C 
BRANCH  18  19
HETATM   19  C   UNL     1      32.337   6.345 -12.903  1.00  0.00    -0.000 C 
BRANCH  19  20
HETATM   20  C   UNL     1      30.924   6.934 -12.806  1.00  0.00    -0.005 C 
HETATM   21  C   UNL     1      30.897   8.382 -13.284  1.00  0.00     0.005 C 
ENDBRANCH  19  20
ENDBRANCH  18  19
ENDBRANCH  17  18
ENDBRANCH  16  17
ENDBRANCH  15  16
ENDBRANCH  14  15
ENDBRANCH  13  14
ENDBRANCH  11  12
ENDBRANCH  10  11
ENDBRANCH   9  10
ENDBRANCH   8   9
ENDBRANCH   7   8
ENDBRANCH   6   7
ENDBRANCH   5   6
ENDBRANCH   3   5
ENDBRANCH   1   3
TORSDOF 16
ENDMDL
MODEL 4
REMARK VINA RESULT:      -5.4     10.150     17.352
REMARK  16 active torsions:
REMARK  status: ('A' for Active; 'I' for Inactive)
REMARK    1  A    between atoms: O_1  and  C_20 
REMARK    2  A    between atoms: C_3  and  C_4 
REMARK    3  A    between atoms: C_3  and  C_5 
REMARK    4  A    between atoms: C_4  and  C_8 
REMARK    5  A    between atoms: C_5  and  C_11 
REMARK    6  A    between atoms: C_6  and  C_7 
REMARK    7  A    between atoms: C_6  and  C_9 
REMARK    8  A    between atoms: C_7  and  C_10 
REMARK    9  A    between atoms: C_8  and  C_12 
REMARK   10  A    between atoms: C_9  and  C_13 
REMARK   11  A    between atoms: C_10  and  C_14 
REMARK   12  A    between atoms: C_11  and  C_15 
REMARK   13  A    between atoms: C_12  and  C_16 
REMARK   14  A    between atoms: C_13  and  C_17 
REMARK   15  A    between atoms: C_14  and  C_18 
REMARK   16  A    between atoms: C_18  and  C_20 
ROOT
HETATM    1  O   UNL     1      47.912  -8.134 -16.575  1.00  0.00    -0.776 OA
HETATM    2  H   UNL     1      48.556  -8.443 -17.228  1.00  0.00     0.167 HD
ENDROOT
BRANCH   1   3
HETATM    3  C   UNL     1      48.173  -7.083 -15.770  1.00  0.00     0.139 C 
HETATM    4  O   UNL     1      48.967  -7.207 -14.847  1.00  0.00    -0.650 OA
BRANCH   3   5
HETATM    5  C   UNL     1      47.475  -5.773 -16.028  1.00  0.00     0.110 C 
BRANCH   5   6
HETATM    6  C   UNL     1      47.590  -5.305 -17.485  1.00  0.00     0.010 C 
BRANCH   6   7
HETATM    7  C   UNL     1      46.355  -5.718 -18.295  1.00  0.00     0.001 C 
BRANCH   7   8
HETATM    8  C   UNL     1      46.649  -5.684 -19.798  1.00  0.00     0.000 C 
BRANCH   8   9
HETATM    9  C   UNL     1      47.970  -6.393 -20.118  1.00  0.00     0.000 C 
BRANCH   9  10
HETATM   10  C   UNL     1      47.905  -7.071 -21.490  1.00  0.00     0.004 C 
BRANCH  10  11
HETATM   11  C   UNL     1      47.817  -6.041 -22.619  1.00  0.00     0.027 C 
BRANCH  11  12
HETATM   12  C   UNL     1      46.572  -6.295 -23.435  1.00  0.00    -0.031 C 
HETATM   13  C   UNL     1      46.372  -5.961 -24.725  1.00  0.00    -0.031 C 
BRANCH  13  14
HETATM   14  C   UNL     1      47.343  -5.251 -25.645  1.00  0.00     0.027 C 
BRANCH  14  15
HETATM   15  C   UNL     1      48.300  -6.248 -26.322  1.00  0.00     0.004 C 
BRANCH  15  16
HETATM   16  C   UNL     1      47.595  -7.371 -27.110  1.00  0.00     0.000 C 
BRANCH  16  17
HETATM   17  C   UNL     1      48.069  -8.779 -26.714  1.00  0.00     0.000 C 
BRANCH  17  18
HETATM   18  C   UNL     1      48.755  -8.767 -25.342  1.00  0.00     0.000 C 
BRANCH  18  19
HETATM   19  C   UNL     1      47.983  -9.626 -24.334  1.00  0.00    -0.000 C 
BRANCH  19  20
HETATM   20  C   UNL     1      46.662 -10.126 -24.931  1.00  0.00    -0.005 C 
HETATM   21  C   UNL     1      45.477  -9.725 -24.058  1.00  0.00     0.005 C 
ENDBRANCH  19  20
ENDBRANCH  18  19
ENDBRANCH  17  18
ENDBRANCH  16  17
ENDBRANCH  15  16
ENDBRANCH  14  15
ENDBRANCH  13  14
ENDBRANCH  11  12
ENDBRANCH  10  11
ENDBRANCH   9  10
ENDBRANCH   8   9
ENDBRANCH   7   8
ENDBRANCH   6   7
ENDBRANCH   5   6
ENDBRANCH   3   5
ENDBRANCH   1   3
TORSDOF 16
ENDMDL
MODEL 5
REMARK VINA RESULT:      -5.3     19.644     20.976
REMARK  16 active torsions:
REMARK  status: ('A' for Active; 'I' for Inactive)
REMARK    1  A    between atoms: O_1  and  C_20 
REMARK    2  A    between atoms: C_3  and  C_4 
REMARK    3  A    between atoms: C_3  and  C_5 
REMARK    4  A    between atoms: C_4  and  C_8 
REMARK    5  A    between atoms: C_5  and  C_11 
REMARK    6  A    between atoms: C_6  and  C_7 
REMARK    7  A    between atoms: C_6  and  C_9 
REMARK    8  A    between atoms: C_7  and  C_10 
REMARK    9  A    between atoms: C_8  and  C_12 
REMARK   10  A    between atoms: C_9  and  C_13 
REMARK   11  A    between atoms: C_10  and  C_14 
REMARK   12  A    between atoms: C_11  and  C_15 
REMARK   13  A    between atoms: C_12  and  C_16 
REMARK   14  A    between atoms: C_13  and  C_17 
REMARK   15  A    between atoms: C_14  and  C_18 
REMARK   16  A    between atoms: C_18  and  C_20 
ROOT
HETATM    1  O   UNL     1      32.965   4.181 -11.418  1.00  0.00    -0.776 OA
HETATM    2  H   UNL     1      32.787   3.231 -11.370  1.00  0.00     0.167 HD
ENDROOT
BRANCH   1   3
HETATM    3  C   UNL     1      32.406   4.955 -12.371  1.00  0.00     0.139 C 
HETATM    4  O   UNL     1      33.084   5.345 -13.312  1.00  0.00    -0.650 OA
BRANCH   3   5
HETATM    5  C   UNL     1      30.950   5.324 -12.253  1.00  0.00     0.110 C 
BRANCH   5   6
HETATM    6  C   UNL     1      30.493   5.519 -10.801  1.00  0.00     0.010 C 
BRANCH   6   7
HETATM    7  C   UNL     1      31.076   6.809 -10.210  1.00  0.00     0.001 C 
BRANCH   7   8
HETATM    8  C   UNL     1      31.092   6.750  -8.679  1.00  0.00     0.000 C 
BRANCH   8   9
HETATM    9  C   UNL     1      30.995   5.303  -8.181  1.00  0.00     0.000 C 
BRANCH   9  10
HETATM   10  C   UNL     1      30.223   5.234  -6.860  1.00  0.00     0.004 C 
BRANCH  10  11
HETATM   11  C   UNL     1      30.878   6.104  -5.783  1.00  0.00     0.027 C 
BRANCH  11  12
HETATM   12  C   UNL     1      32.018   5.343  -5.149  1.00  0.00    -0.031 C 
HETATM   13  C   UNL     1      33.255   5.813  -4.889  1.00  0.00    -0.031 C 
BRANCH  13  14
HETATM   14  C   UNL     1      33.783   7.201  -5.181  1.00  0.00     0.027 C 
BRANCH  14  15
HETATM   15  C   UNL     1      34.097   7.375  -6.678  1.00  0.00     0.004 C 
BRANCH  15  16
HETATM   16  C   UNL     1      34.388   8.828  -7.103  1.00  0.00     0.000 C 
BRANCH  16  17
HETATM   17  C   UNL     1      33.429   9.849  -6.469  1.00  0.00     0.000 C 
BRANCH  17  18
HETATM   18  C   UNL     1      32.105   9.918  -7.241  1.00  0.00     0.000 C 
BRANCH  18  19
HETATM   19  C   UNL     1      30.907   9.785  -6.292  1.00  0.00    -0.000 C 
BRANCH  19  20
HETATM   20  C   UNL     1      31.351   9.877  -4.827  1.00  0.00    -0.005 C 
HETATM   21  C   UNL     1      30.357   9.177  -3.906  1.00  0.00     0.005 C 
ENDBRANCH  19  20
ENDBRANCH  18  19
ENDBRANCH  17  18
ENDBRANCH  16  17
ENDBRANCH  15  16
ENDBRANCH  14  15
ENDBRANCH  13  14
ENDBRANCH  11  12
ENDBRANCH  10  11
ENDBRANCH   9  10
ENDBRANCH   8   9
ENDBRANCH   7   8
ENDBRANCH   6   7
ENDBRANCH   5   6
ENDBRANCH   3   5
ENDBRANCH   1   3
TORSDOF 16
ENDMDL
MODEL 6
REMARK VINA RESULT:      -5.3     21.026     23.076
REMARK  16 active torsions:
REMARK  status: ('A' for Active; 'I' for Inactive)
REMARK    1  A    between atoms: O_1  and  C_20 
REMARK    2  A    between atoms: C_3  and  C_4 
REMARK    3  A    between atoms: C_3  and  C_5 
REMARK    4  A    between atoms: C_4  and  C_8 
REMARK    5  A    between atoms: C_5  and  C_11 
REMARK    6  A    between atoms: C_6  and  C_7 
REMARK    7  A    between atoms: C_6  and  C_9 
REMARK    8  A    between atoms: C_7  and  C_10 
REMARK    9  A    between atoms: C_8  and  C_12 
REMARK   10  A    between atoms: C_9  and  C_13 
REMARK   11  A    between atoms: C_10  and  C_14 
REMARK   12  A    between atoms: C_11  and  C_15 
REMARK   13  A    between atoms: C_12  and  C_16 
REMARK   14  A    between atoms: C_13  and  C_17 
REMARK   15  A    between atoms: C_14  and  C_18 
REMARK   16  A    between atoms: C_18  and  C_20 
ROOT
HETATM    1  O   UNL     1      28.137  12.314 -14.917  1.00  0.00    -0.776 OA
HETATM    2  H   UNL     1      27.317  12.208 -15.420  1.00  0.00     0.167 HD
ENDROOT
BRANCH   1   3
HETATM    3  C   UNL     1      28.655  11.301 -14.191  1.00  0.00     0.139 C 
HETATM    4  O   UNL     1      28.847  11.449 -12.992  1.00  0.00    -0.650 OA
BRANCH   3   5
HETATM    5  C   UNL     1      28.985  10.002 -14.879  1.00  0.00     0.110 C 
BRANCH   5   6
HETATM    6  C   UNL     1      30.190   9.281 -14.260  1.00  0.00     0.010 C 
BRANCH   6   7
HETATM    7  C   UNL     1      31.056   8.628 -15.344  1.00  0.00     0.001 C 
BRANCH   7   8
HETATM    8  C   UNL     1      32.500   9.138 -15.272  1.00  0.00     0.000 C 
BRANCH   8   9
HETATM    9  C   UNL     1      32.890   9.488 -13.831  1.00  0.00     0.000 C 
BRANCH   9  10
HETATM   10  C   UNL     1      34.243   8.869 -13.469  1.00  0.00     0.004 C 
BRANCH  10  11
HETATM   11  C   UNL     1      34.140   7.993 -12.217  1.00  0.00     0.027 C 
BRANCH  11  12
HETATM   12  C   UNL     1      33.015   8.496 -11.345  1.00  0.00    -0.031 C 
HETATM   13  C   UNL     1      32.570   7.937 -10.202  1.00  0.00    -0.031 C 
BRANCH  13  14
HETATM   14  C   UNL     1      33.090   6.679  -9.538  1.00  0.00     0.027 C 
BRANCH  14  15
HETATM   15  C   UNL     1      32.340   5.434 -10.043  1.00  0.00     0.004 C 
BRANCH  15  16
HETATM   16  C   UNL     1      30.877   5.695 -10.457  1.00  0.00     0.000 C 
BRANCH  16  17
HETATM   17  C   UNL     1      30.507   5.061 -11.807  1.00  0.00     0.000 C 
BRANCH  17  18
HETATM   18  C   UNL     1      31.078   5.874 -12.976  1.00  0.00     0.000 C 
BRANCH  18  19
HETATM   19  C   UNL     1      32.361   5.232 -13.517  1.00  0.00    -0.000 C 
BRANCH  19  20
HETATM   20  C   UNL     1      32.383   5.249 -15.050  1.00  0.00    -0.005 C 
HETATM   21  C   UNL     1      33.744   5.690 -15.577  1.00  0.00     0.005 C 
ENDBRANCH  19  20
ENDBRANCH  18  19
ENDBRANCH  17  18
ENDBRANCH  16  17
ENDBRANCH  15  16
ENDBRANCH  14  15
ENDBRANCH  13  14
ENDBRANCH  11  12
ENDBRANCH  10  11
ENDBRANCH   9  10
ENDBRANCH   8   9
ENDBRANCH   7   8
ENDBRANCH   6   7
ENDBRANCH   5   6
ENDBRANCH   3   5
ENDBRANCH   1   3
TORSDOF 16
ENDMDL
MODEL 7
REMARK VINA RESULT:      -5.3     21.055     22.803
REMARK  16 active torsions:
REMARK  status: ('A' for Active; 'I' for Inactive)
REMARK    1  A    between atoms: O_1  and  C_20 
REMARK    2  A    between atoms: C_3  and  C_4 
REMARK    3  A    between atoms: C_3  and  C_5 
REMARK    4  A    between atoms: C_4  and  C_8 
REMARK    5  A    between atoms: C_5  and  C_11 
REMARK    6  A    between atoms: C_6  and  C_7 
REMARK    7  A    between atoms: C_6  and  C_9 
REMARK    8  A    between atoms: C_7  and  C_10 
REMARK    9  A    between atoms: C_8  and  C_12 
REMARK   10  A    between atoms: C_9  and  C_13 
REMARK   11  A    between atoms: C_10  and  C_14 
REMARK   12  A    between atoms: C_11  and  C_15 
REMARK   13  A    between atoms: C_12  and  C_16 
REMARK   14  A    between atoms: C_13  and  C_17 
REMARK   15  A    between atoms: C_14  and  C_18 
REMARK   16  A    between atoms: C_18  and  C_20 
ROOT
HETATM    1  O   UNL     1      29.312  12.256 -14.214  1.00  0.00    -0.776 OA
HETATM    2  H   UNL     1      28.706  12.833 -14.701  1.00  0.00     0.167 HD
ENDROOT
BRANCH   1   3
HETATM    3  C   UNL     1      29.019  10.959 -13.985  1.00  0.00     0.139 C 
HETATM    4  O   UNL     1      27.957  10.497 -14.383  1.00  0.00    -0.650 OA
BRANCH   3   5
HETATM    5  C   UNL     1      30.012  10.105 -13.242  1.00  0.00     0.110 C 
BRANCH   5   6
HETATM    6  C   UNL     1      31.068   9.471 -14.158  1.00  0.00     0.010 C 
BRANCH   6   7
HETATM    7  C   UNL     1      30.468   8.318 -14.972  1.00  0.00     0.001 C 
BRANCH   7   8
HETATM    8  C   UNL     1      30.941   8.373 -16.429  1.00  0.00     0.000 C 
BRANCH   8   9
HETATM    9  C   UNL     1      31.216   6.966 -16.973  1.00  0.00     0.000 C 
BRANCH   9  10
HETATM   10  C   UNL     1      30.916   5.904 -15.910  1.00  0.00     0.004 C 
BRANCH  10  11
HETATM   11  C   UNL     1      32.145   5.039 -15.622  1.00  0.00     0.027 C 
BRANCH  11  12
HETATM   12  C   UNL     1      32.892   5.606 -14.439  1.00  0.00    -0.031 C 
HETATM   13  C   UNL     1      32.468   5.641 -13.160  1.00  0.00    -0.031 C 
BRANCH  13  14
HETATM   14  C   UNL     1      31.149   5.129 -12.621  1.00  0.00     0.027 C 
BRANCH  14  15
HETATM   15  C   UNL     1      30.410   6.222 -11.829  1.00  0.00     0.004 C 
BRANCH  15  16
HETATM   16  C   UNL     1      31.336   7.241 -11.134  1.00  0.00     0.000 C 
BRANCH  16  17
HETATM   17  C   UNL     1      30.631   8.047 -10.031  1.00  0.00     0.000 C 
BRANCH  17  18
HETATM   18  C   UNL     1      31.162   7.666  -8.643  1.00  0.00     0.000 C 
BRANCH  18  19
HETATM   19  C   UNL     1      32.216   6.557  -8.743  1.00  0.00    -0.000 C 
BRANCH  19  20
HETATM   20  C   UNL     1      31.698   5.247  -8.138  1.00  0.00    -0.005 C 
HETATM   21  C   UNL     1      32.484   4.870  -6.886  1.00  0.00     0.005 C 
ENDBRANCH  19  20
ENDBRANCH  18  19
ENDBRANCH  17  18
ENDBRANCH  16  17
ENDBRANCH  15  16
ENDBRANCH  14  15
ENDBRANCH  13  14
ENDBRANCH  11  12
ENDBRANCH  10  11
ENDBRANCH   9  10
ENDBRANCH   8   9
ENDBRANCH   7   8
ENDBRANCH   6   7
ENDBRANCH   5   6
ENDBRANCH   3   5
ENDBRANCH   1   3
TORSDOF 16
ENDMDL
MODEL 8
REMARK VINA RESULT:      -5.2     20.844     22.992
REMARK  16 active torsions:
REMARK  status: ('A' for Active; 'I' for Inactive)
REMARK    1  A    between atoms: O_1  and  C_20 
REMARK    2  A    between atoms: C_3  and  C_4 
REMARK    3  A    between atoms: C_3  and  C_5 
REMARK    4  A    between atoms: C_4  and  C_8 
REMARK    5  A    between atoms: C_5  and  C_11 
REMARK    6  A    between atoms: C_6  and  C_7 
REMARK    7  A    between atoms: C_6  and  C_9 
REMARK    8  A    between atoms: C_7  and  C_10 
REMARK    9  A    between atoms: C_8  and  C_12 
REMARK   10  A    between atoms: C_9  and  C_13 
REMARK   11  A    between atoms: C_10  and  C_14 
REMARK   12  A    between atoms: C_11  and  C_15 
REMARK   13  A    between atoms: C_12  and  C_16 
REMARK   14  A    between atoms: C_13  and  C_17 
REMARK   15  A    between atoms: C_14  and  C_18 
REMARK   16  A    between atoms: C_18  and  C_20 
ROOT
HETATM    1  O   UNL     1      28.772  12.191 -12.579  1.00  0.00    -0.776 OA
HETATM    2  H   UNL     1      29.413  12.739 -12.104  1.00  0.00     0.167 HD
ENDROOT
BRANCH   1   3
HETATM    3  C   UNL     1      29.165  11.170 -13.369  1.00  0.00     0.139 C 
HETATM    4  O   UNL     1      28.328  10.515 -13.976  1.00  0.00    -0.650 OA
BRANCH   3   5
HETATM    5  C   UNL     1      30.634  10.861 -13.487  1.00  0.00     0.110 C 
BRANCH   5   6
HETATM    6  C   UNL     1      30.920   9.371 -13.716  1.00  0.00     0.010 C 
BRANCH   6   7
HETATM    7  C   UNL     1      31.730   9.157 -15.001  1.00  0.00     0.001 C 
BRANCH   7   8
HETATM    8  C   UNL     1      30.824   8.695 -16.148  1.00  0.00     0.000 C 
BRANCH   8   9
HETATM    9  C   UNL     1      31.648   8.107 -17.299  1.00  0.00     0.000 C 
BRANCH   9  10
HETATM   10  C   UNL     1      30.918   6.922 -17.939  1.00  0.00     0.004 C 
BRANCH  10  11
HETATM   11  C   UNL     1      30.580   5.847 -16.903  1.00  0.00     0.027 C 
BRANCH  11  12
HETATM   12  C   UNL     1      31.776   4.947 -16.706  1.00  0.00    -0.031 C 
HETATM   13  C   UNL     1      32.575   4.893 -15.621  1.00  0.00    -0.031 C 
BRANCH  13  14
HETATM   14  C   UNL     1      32.461   5.726 -14.362  1.00  0.00     0.027 C 
BRANCH  14  15
HETATM   15  C   UNL     1      31.075   5.566 -13.712  1.00  0.00     0.004 C 
BRANCH  15  16
HETATM   16  C   UNL     1      31.113   5.174 -12.221  1.00  0.00     0.000 C 
BRANCH  16  17
HETATM   17  C   UNL     1      32.495   4.687 -11.757  1.00  0.00     0.000 C 
BRANCH  17  18
HETATM   18  C   UNL     1      32.925   5.392 -10.464  1.00  0.00     0.000 C 
BRANCH  18  19
HETATM   19  C   UNL     1      34.175   6.249 -10.695  1.00  0.00    -0.000 C 
BRANCH  19  20
HETATM   20  C   UNL     1      33.808   7.728 -10.864  1.00  0.00    -0.005 C 
HETATM   21  C   UNL     1      34.130   8.217 -12.272  1.00  0.00     0.005 C 
ENDBRANCH  19  20
ENDBRANCH  18  19
ENDBRANCH  17  18
ENDBRANCH  16  17
ENDBRANCH  15  16
ENDBRANCH  14  15
ENDBRANCH  13  14
ENDBRANCH  11  12
ENDBRANCH  10  11
ENDBRANCH   9  10
ENDBRANCH   8   9
ENDBRANCH   7   8
ENDBRANCH   6   7
ENDBRANCH   5   6
ENDBRANCH   3   5
ENDBRANCH   1   3
TORSDOF 16
ENDMDL
MODEL 9
REMARK VINA RESULT:      -5.2     20.413     24.150
REMARK  16 active torsions:
REMARK  status: ('A' for Active; 'I' for Inactive)
REMARK    1  A    between atoms: O_1  and  C_20 
REMARK    2  A    between atoms: C_3  and  C_4 
REMARK    3  A    between atoms: C_3  and  C_5 
REMARK    4  A    between atoms: C_4  and  C_8 
REMARK    5  A    between atoms: C_5  and  C_11 
REMARK    6  A    between atoms: C_6  and  C_7 
REMARK    7  A    between atoms: C_6  and  C_9 
REMARK    8  A    between atoms: C_7  and  C_10 
REMARK    9  A    between atoms: C_8  and  C_12 
REMARK   10  A    between atoms: C_9  and  C_13 
REMARK   11  A    between atoms: C_10  and  C_14 
REMARK   12  A    between atoms: C_11  and  C_15 
REMARK   13  A    between atoms: C_12  and  C_16 
REMARK   14  A    between atoms: C_13  and  C_17 
REMARK   15  A    between atoms: C_14  and  C_18 
REMARK   16  A    between atoms: C_18  and  C_20 
ROOT
HETATM    1  O   UNL     1      33.228   4.335 -11.534  1.00  0.00    -0.776 OA
HETATM    2  H   UNL     1      33.595   4.665 -10.702  1.00  0.00     0.167 HD
ENDROOT
BRANCH   1   3
HETATM    3  C   UNL     1      32.124   4.883 -12.085  1.00  0.00     0.139 C 
HETATM    4  O   UNL     1      31.131   5.069 -11.395  1.00  0.00    -0.650 OA
BRANCH   3   5
HETATM    5  C   UNL     1      32.142   5.254 -13.544  1.00  0.00     0.110 C 
BRANCH   5   6
HETATM    6  C   UNL     1      32.047   6.767 -13.782  1.00  0.00     0.010 C 
BRANCH   6   7
HETATM    7  C   UNL     1      33.382   7.457 -13.474  1.00  0.00     0.001 C 
BRANCH   7   8
HETATM    8  C   UNL     1      34.128   7.807 -14.766  1.00  0.00     0.000 C 
BRANCH   8   9
HETATM    9  C   UNL     1      33.295   8.745 -15.647  1.00  0.00     0.000 C 
BRANCH   9  10
HETATM   10  C   UNL     1      33.507   8.428 -17.131  1.00  0.00     0.004 C 
BRANCH  10  11
HETATM   11  C   UNL     1      32.196   8.524 -17.916  1.00  0.00     0.027 C 
BRANCH  11  12
HETATM   12  C   UNL     1      31.238   7.465 -17.424  1.00  0.00    -0.031 C 
HETATM   13  C   UNL     1      31.397   6.130 -17.516  1.00  0.00    -0.031 C 
BRANCH  13  14
HETATM   14  C   UNL     1      32.562   5.389 -18.137  1.00  0.00     0.027 C 
BRANCH  14  15
HETATM   15  C   UNL     1      32.428   5.326 -19.669  1.00  0.00     0.004 C 
BRANCH  15  16
HETATM   16  C   UNL     1      33.750   5.544 -20.433  1.00  0.00     0.000 C 
BRANCH  16  17
HETATM   17  C   UNL     1      34.102   7.029 -20.625  1.00  0.00     0.000 C 
BRANCH  17  18
HETATM   18  C   UNL     1      33.452   7.590 -21.897  1.00  0.00     0.000 C 
BRANCH  18  19
HETATM   19  C   UNL     1      32.285   8.522 -21.552  1.00  0.00    -0.000 C 
BRANCH  19  20
HETATM   20  C   UNL     1      30.938   7.856 -21.856  1.00  0.00    -0.005 C 
HETATM   21  C   UNL     1      31.029   6.969 -23.094  1.00  0.00     0.005 C 
ENDBRANCH  19  20
ENDBRANCH  18  19
ENDBRANCH  17  18
ENDBRANCH  16  17
ENDBRANCH  15  16
ENDBRANCH  14  15
ENDBRANCH  13  14
ENDBRANCH  11  12
ENDBRANCH  10  11
ENDBRANCH   9  10
ENDBRANCH   8   9
ENDBRANCH   7   8
ENDBRANCH   6   7
ENDBRANCH   5   6
ENDBRANCH   3   5
ENDBRANCH   1   3
TORSDOF 16
ENDMDL
MODEL 10
REMARK VINA RESULT:      -5.2     21.579     23.787
REMARK  16 active torsions:
REMARK  status: ('A' for Active; 'I' for Inactive)
REMARK    1  A    between atoms: O_1  and  C_20 
REMARK    2  A    between atoms: C_3  and  C_4 
REMARK    3  A    between atoms: C_3  and  C_5 
REMARK    4  A    between atoms: C_4  and  C_8 
REMARK    5  A    between atoms: C_5  and  C_11 
REMARK    6  A    between atoms: C_6  and  C_7 
REMARK    7  A    between atoms: C_6  and  C_9 
REMARK    8  A    between atoms: C_7  and  C_10 
REMARK    9  A    between atoms: C_8  and  C_12 
REMARK   10  A    between atoms: C_9  and  C_13 
REMARK   11  A    between atoms: C_10  and  C_14 
REMARK   12  A    between atoms: C_11  and  C_15 
REMARK   13  A    between atoms: C_12  and  C_16 
REMARK   14  A    between atoms: C_13  and  C_17 
REMARK   15  A    between atoms: C_14  and  C_18 
REMARK   16  A    between atoms: C_18  and  C_20 
ROOT
HETATM    1  O   UNL     1      28.937  11.664  -8.109  1.00  0.00    -0.776 OA
HETATM    2  H   UNL     1      28.723  11.293  -7.241  1.00  0.00     0.167 HD
ENDROOT
BRANCH   1   3
HETATM    3  C   UNL     1      28.914  10.907  -9.225  1.00  0.00     0.139 C 
HETATM    4  O   UNL     1      27.862  10.400  -9.593  1.00  0.00    -0.650 OA
BRANCH   3   5
HETATM    5  C   UNL     1      30.191  10.702  -9.997  1.00  0.00     0.110 C 
BRANCH   5   6
HETATM    6  C   UNL     1      31.365  10.260  -9.114  1.00  0.00     0.010 C 
BRANCH   6   7
HETATM    7  C   UNL     1      32.027   8.994  -9.673  1.00  0.00     0.001 C 
BRANCH   7   8
HETATM    8  C   UNL     1      32.872   9.319 -10.909  1.00  0.00     0.000 C 
BRANCH   8   9
HETATM    9  C   UNL     1      33.887   8.206 -11.192  1.00  0.00     0.000 C 
BRANCH   9  10
HETATM   10  C   UNL     1      33.932   7.204 -10.034  1.00  0.00     0.004 C 
BRANCH  10  11
HETATM   11  C   UNL     1      33.585   5.790 -10.505  1.00  0.00     0.027 C 
BRANCH  11  12
HETATM   12  C   UNL     1      32.341   5.314  -9.793  1.00  0.00    -0.031 C 
HETATM   13  C   UNL     1      31.068   5.450 -10.216  1.00  0.00    -0.031 C 
BRANCH  13  14
HETATM   14  C   UNL     1      30.596   6.115 -11.492  1.00  0.00     0.027 C 
BRANCH  14  15
HETATM   15  C   UNL     1      30.479   5.097 -12.639  1.00  0.00     0.004 C 
BRANCH  15  16
HETATM   16  C   UNL     1      31.100   5.565 -13.971  1.00  0.00     0.000 C 
BRANCH  16  17
HETATM   17  C   UNL     1      31.966   6.827 -13.826  1.00  0.00     0.000 C 
BRANCH  17  18
HETATM   18  C   UNL     1      31.690   7.821 -14.961  1.00  0.00     0.000 C 
BRANCH  18  19
HETATM   19  C   UNL     1      30.341   8.522 -14.761  1.00  0.00    -0.000 C 
BRANCH  19  20
HETATM   20  C   UNL     1      30.375   9.448 -13.540  1.00  0.00    -0.005 C 
HETATM   21  C   UNL     1      29.477  10.664 -13.746  1.00  0.00     0.005 C 
ENDBRANCH  19  20
ENDBRANCH  18  19
ENDBRANCH  17  18
ENDBRANCH  16  17
ENDBRANCH  15  16
ENDBRANCH  14  15
ENDBRANCH  13  14
ENDBRANCH  11  12
ENDBRANCH  10  11
ENDBRANCH   9  10
ENDBRANCH   8   9
ENDBRANCH   7   8
ENDBRANCH   6   7
ENDBRANCH   5   6
ENDBRANCH   3   5
ENDBRANCH   1   3
TORSDOF 16
ENDMDL
MODEL 11
REMARK VINA RESULT:      -5.2     19.869     23.028
REMARK  16 active torsions:
REMARK  status: ('A' for Active; 'I' for Inactive)
REMARK    1  A    between atoms: O_1  and  C_20 
REMARK    2  A    between atoms: C_3  and  C_4 
REMARK    3  A    between atoms: C_3  and  C_5 
REMARK    4  A    between atoms: C_4  and  C_8 
REMARK    5  A    between atoms: C_5  and  C_11 
REMARK    6  A    between atoms: C_6  and  C_7 
REMARK    7  A    between atoms: C_6  and  C_9 
REMARK    8  A    between atoms: C_7  and  C_10 
REMARK    9  A    between atoms: C_8  and  C_12 
REMARK   10  A    between atoms: C_9  and  C_13 
REMARK   11  A    between atoms: C_10  and  C_14 
REMARK   12  A    between atoms: C_11  and  C_15 
REMARK   13  A    between atoms: C_12  and  C_16 
REMARK   14  A    between atoms: C_13  and  C_17 
REMARK   15  A    between atoms: C_14  and  C_18 
REMARK   16  A    between atoms: C_18  and  C_20 
ROOT
HETATM    1  O   UNL     1      33.683   5.108 -10.231  1.00  0.00    -0.776 OA
HETATM    2  H   UNL     1      34.598   5.396 -10.364  1.00  0.00     0.167 HD
ENDROOT
BRANCH   1   3
HETATM    3  C   UNL     1      32.826   5.814  -9.465  1.00  0.00     0.139 C 
HETATM    4  O   UNL     1      33.261   6.622  -8.655  1.00  0.00    -0.650 OA
BRANCH   3   5
HETATM    5  C   UNL     1      31.346   5.590  -9.626  1.00  0.00     0.110 C 
BRANCH   5   6
HETATM    6  C   UNL     1      30.648   6.712 -10.408  1.00  0.00     0.010 C 
BRANCH   6   7
HETATM    7  C   UNL     1      30.722   6.458 -11.919  1.00  0.00     0.001 C 
BRANCH   7   8
HETATM    8  C   UNL     1      31.701   7.428 -12.588  1.00  0.00     0.000 C 
BRANCH   8   9
HETATM    9  C   UNL     1      32.865   6.674 -13.242  1.00  0.00     0.000 C 
BRANCH   9  10
HETATM   10  C   UNL     1      32.416   5.288 -13.717  1.00  0.00     0.004 C 
BRANCH  10  11
HETATM   11  C   UNL     1      32.262   5.242 -15.239  1.00  0.00     0.027 C 
BRANCH  11  12
HETATM   12  C   UNL     1      30.804   5.398 -15.601  1.00  0.00    -0.031 C 
HETATM   13  C   UNL     1      30.281   5.441 -16.843  1.00  0.00    -0.031 C 
BRANCH  13  14
HETATM   14  C   UNL     1      31.034   5.353 -18.153  1.00  0.00     0.027 C 
BRANCH  14  15
HETATM   15  C   UNL     1      31.706   6.694 -18.500  1.00  0.00     0.004 C 
BRANCH  15  16
HETATM   16  C   UNL     1      30.781   7.921 -18.369  1.00  0.00     0.000 C 
BRANCH  16  17
HETATM   17  C   UNL     1      31.296   8.964 -17.364  1.00  0.00     0.000 C 
BRANCH  17  18
HETATM   18  C   UNL     1      32.626   8.520 -16.739  1.00  0.00     0.000 C 
BRANCH  18  19
HETATM   19  C   UNL     1      33.113   9.539 -15.702  1.00  0.00    -0.000 C 
BRANCH  19  20
HETATM   20  C   UNL     1      34.504   9.167 -15.174  1.00  0.00    -0.005 C 
HETATM   21  C   UNL     1      35.024   7.897 -15.840  1.00  0.00     0.005 C 
ENDBRANCH  19  20
ENDBRANCH  18  19
ENDBRANCH  17  18
ENDBRANCH  16  17
ENDBRANCH  15  16
ENDBRANCH  14  15
ENDBRANCH  13  14
ENDBRANCH  11  12
ENDBRANCH  10  11
ENDBRANCH   9  10
ENDBRANCH   8   9
ENDBRANCH   7   8
ENDBRANCH   6   7
ENDBRANCH   5   6
ENDBRANCH   3   5
ENDBRANCH   1   3
TORSDOF 16
ENDMDL
MODEL 12
REMARK VINA RESULT:      -5.2     20.788     22.463
REMARK  16 active torsions:
REMARK  status: ('A' for Active; 'I' for Inactive)
REMARK    1  A    between atoms: O_1  and  C_20 
REMARK    2  A    between atoms: C_3  and  C_4 
REMARK    3  A    between atoms: C_3  and  C_5 
REMARK    4  A    between atoms: C_4  and  C_8 
REMARK    5  A    between atoms: C_5  and  C_11 
REMARK    6  A    between atoms: C_6  and  C_7 
REMARK    7  A    between atoms: C_6  and  C_9 
REMARK    8  A    between atoms: C_7  and  C_10 
REMARK    9  A    between atoms: C_8  and  C_12 
REMARK   10  A    between atoms: C_9  and  C_13 
REMARK   11  A    between atoms: C_10  and  C_14 
REMARK   12  A    between atoms: C_11  and  C_15 
REMARK   13  A    between atoms: C_12  and  C_16 
REMARK   14  A    between atoms: C_13  and  C_17 
REMARK   15  A    between atoms: C_14  and  C_18 
REMARK   16  A    between atoms: C_18  and  C_20 
ROOT
HETATM    1  O   UNL     1      29.082  10.586 -11.278  1.00  0.00    -0.776 OA
HETATM    2  H   UNL     1      29.062  11.541 -11.431  1.00  0.00     0.167 HD
ENDROOT
BRANCH   1   3
HETATM    3  C   UNL     1      29.056  10.071 -10.031  1.00  0.00     0.139 C 
HETATM    4  O   UNL     1      28.186  10.423  -9.246  1.00  0.00    -0.650 OA
BRANCH   3   5
HETATM    5  C   UNL     1      30.107   9.068  -9.631  1.00  0.00     0.110 C 
BRANCH   5   6
HETATM    6  C   UNL     1      30.877   9.472  -8.366  1.00  0.00     0.010 C 
BRANCH   6   7
HETATM    7  C   UNL     1      32.093  10.338  -8.716  1.00  0.00     0.001 C 
BRANCH   7   8
HETATM    8  C   UNL     1      33.357   9.481  -8.841  1.00  0.00     0.000 C 
BRANCH   8   9
HETATM    9  C   UNL     1      33.356   8.344  -7.813  1.00  0.00     0.000 C 
BRANCH   9  10
HETATM   10  C   UNL     1      34.519   8.501  -6.828  1.00  0.00     0.004 C 
BRANCH  10  11
HETATM   11  C   UNL     1      34.218   7.813  -5.494  1.00  0.00     0.027 C 
BRANCH  11  12
HETATM   12  C   UNL     1      32.859   8.248  -5.000  1.00  0.00    -0.031 C 
HETATM   13  C   UNL     1      31.855   7.445  -4.593  1.00  0.00    -0.031 C 
BRANCH  13  14
HETATM   14  C   UNL     1      31.857   5.932  -4.546  1.00  0.00     0.027 C 
BRANCH  14  15
HETATM   15  C   UNL     1      30.764   5.346  -5.457  1.00  0.00     0.004 C 
BRANCH  15  16
HETATM   16  C   UNL     1      30.513   6.150  -6.749  1.00  0.00     0.000 C 
BRANCH  16  17
HETATM   17  C   UNL     1      30.636   5.301  -8.025  1.00  0.00     0.000 C 
BRANCH  17  18
HETATM   18  C   UNL     1      32.086   5.265  -8.527  1.00  0.00     0.000 C 
BRANCH  18  19
HETATM   19  C   UNL     1      32.161   5.623 -10.016  1.00  0.00    -0.000 C 
BRANCH  19  20
HETATM   20  C   UNL     1      30.893   5.180 -10.755  1.00  0.00    -0.005 C 
HETATM   21  C   UNL     1      30.437   6.241 -11.752  1.00  0.00     0.005 C 
ENDBRANCH  19  20
ENDBRANCH  18  19
ENDBRANCH  17  18
ENDBRANCH  16  17
ENDBRANCH  15  16
ENDBRANCH  14  15
ENDBRANCH  13  14
ENDBRANCH  11  12
ENDBRANCH  10  11
ENDBRANCH   9  10
ENDBRANCH   8   9
ENDBRANCH   7   8
ENDBRANCH   6   7
ENDBRANCH   5   6
ENDBRANCH   3   5
ENDBRANCH   1   3
TORSDOF 16
ENDMDL
MODEL 13
REMARK VINA RESULT:      -5.2     19.348     20.778
REMARK  16 active torsions:
REMARK  status: ('A' for Active; 'I' for Inactive)
REMARK    1  A    between atoms: O_1  and  C_20 
REMARK    2  A    between atoms: C_3  and  C_4 
REMARK    3  A    between atoms: C_3  and  C_5 
REMARK    4  A    between atoms: C_4  and  C_8 
REMARK    5  A    between atoms: C_5  and  C_11 
REMARK    6  A    between atoms: C_6  and  C_7 
REMARK    7  A    between atoms: C_6  and  C_9 
REMARK    8  A    between atoms: C_7  and  C_10 
REMARK    9  A    between atoms: C_8  and  C_12 
REMARK   10  A    between atoms: C_9  and  C_13 
REMARK   11  A    between atoms: C_10  and  C_14 
REMARK   12  A    between atoms: C_11  and  C_15 
REMARK   13  A    between atoms: C_12  and  C_16 
REMARK   14  A    between atoms: C_13  and  C_17 
REMARK   15  A    between atoms: C_14  and  C_18 
REMARK   16  A    between atoms: C_18  and  C_20 
ROOT
HETATM    1  O   UNL     1      33.519   4.543 -16.063  1.00  0.00    -0.776 OA
HETATM    2  H   UNL     1      33.887   5.144 -15.400  1.00  0.00     0.167 HD
ENDROOT
BRANCH   1   3
HETATM    3  C   UNL     1      32.639   4.973 -16.992  1.00  0.00     0.139 C 
HETATM    4  O   UNL     1      33.035   5.273 -18.110  1.00  0.00    -0.650 OA
BRANCH   3   5
HETATM    5  C   UNL     1      31.181   5.073 -16.627  1.00  0.00     0.110 C 
BRANCH   5   6
HETATM    6  C   UNL     1      30.872   6.252 -15.695  1.00  0.00     0.010 C 
BRANCH   6   7
HETATM    7  C   UNL     1      30.819   5.796 -14.231  1.00  0.00     0.001 C 
BRANCH   7   8
HETATM    8  C   UNL     1      31.799   6.601 -13.371  1.00  0.00     0.000 C 
BRANCH   8   9
HETATM    9  C   UNL     1      32.673   7.514 -14.239  1.00  0.00     0.000 C 
BRANCH   9  10
HETATM   10  C   UNL     1      33.691   8.270 -13.379  1.00  0.00     0.004 C 
BRANCH  10  11
HETATM   11  C   UNL     1      33.232   8.360 -11.921  1.00  0.00     0.027 C 
BRANCH  11  12
HETATM   12  C   UNL     1      34.348   7.898 -11.014  1.00  0.00    -0.031 C 
HETATM   13  C   UNL     1      34.493   6.670 -10.477  1.00  0.00    -0.031 C 
BRANCH  13  14
HETATM   14  C   UNL     1      33.571   5.482 -10.652  1.00  0.00     0.027 C 
BRANCH  14  15
HETATM   15  C   UNL     1      32.584   5.366  -9.477  1.00  0.00     0.004 C 
BRANCH  15  16
HETATM   16  C   UNL     1      31.227   6.059  -9.714  1.00  0.00     0.000 C 
BRANCH  16  17
HETATM   17  C   UNL     1      31.089   7.395  -8.967  1.00  0.00     0.000 C 
BRANCH  17  18
HETATM   18  C   UNL     1      31.901   7.387  -7.665  1.00  0.00     0.000 C 
BRANCH  18  19
HETATM   19  C   UNL     1      31.133   6.680  -6.542  1.00  0.00    -0.000 C 
BRANCH  19  20
HETATM   20  C   UNL     1      31.089   7.542  -5.275  1.00  0.00    -0.005 C 
HETATM   21  C   UNL     1      30.149   8.730  -5.449  1.00  0.00     0.005 C 
ENDBRANCH  19  20
ENDBRANCH  18  19
ENDBRANCH  17  18
ENDBRANCH  16  17
ENDBRANCH  15  16
ENDBRANCH  14  15
ENDBRANCH  13  14
ENDBRANCH  11  12
ENDBRANCH  10  11
ENDBRANCH   9  10
ENDBRANCH   8   9
ENDBRANCH   7   8
ENDBRANCH   6   7
ENDBRANCH   5   6
ENDBRANCH   3   5
ENDBRANCH   1   3
TORSDOF 16
ENDMDL
MODEL 14
REMARK VINA RESULT:      -5.2     21.609     24.697
REMARK  16 active torsions:
REMARK  status: ('A' for Active; 'I' for Inactive)
REMARK    1  A    between atoms: O_1  and  C_20 
REMARK    2  A    between atoms: C_3  and  C_4 
REMARK    3  A    between atoms: C_3  and  C_5 
REMARK    4  A    between atoms: C_4  and  C_8 
REMARK    5  A    between atoms: C_5  and  C_11 
REMARK    6  A    between atoms: C_6  and  C_7 
REMARK    7  A    between atoms: C_6  and  C_9 
REMARK    8  A    between atoms: C_7  and  C_10 
REMARK    9  A    between atoms: C_8  and  C_12 
REMARK   10  A    between atoms: C_9  and  C_13 
REMARK   11  A    between atoms: C_10  and  C_14 
REMARK   12  A    between atoms: C_11  and  C_15 
REMARK   13  A    between atoms: C_12  and  C_16 
REMARK   14  A    between atoms: C_13  and  C_17 
REMARK   15  A    between atoms: C_14  and  C_18 
REMARK   16  A    between atoms: C_18  and  C_20 
ROOT
HETATM    1  O   UNL     1      29.499  11.997 -15.085  1.00  0.00    -0.776 OA
HETATM    2  H   UNL     1      30.157  12.178 -15.771  1.00  0.00     0.167 HD
ENDROOT
BRANCH   1   3
HETATM    3  C   UNL     1      29.249  10.739 -14.663  1.00  0.00     0.139 C 
HETATM    4  O   UNL     1      28.105  10.410 -14.380  1.00  0.00    -0.650 OA
BRANCH   3   5
HETATM    5  C   UNL     1      30.391   9.765 -14.551  1.00  0.00     0.110 C 
BRANCH   5   6
HETATM    6  C   UNL     1      30.550   8.876 -15.793  1.00  0.00     0.010 C 
BRANCH   6   7
HETATM    7  C   UNL     1      30.436   7.392 -15.425  1.00  0.00     0.001 C 
BRANCH   7   8
HETATM    8  C   UNL     1      30.621   6.506 -16.662  1.00  0.00     0.000 C 
BRANCH   8   9
HETATM    9  C   UNL     1      31.282   5.173 -16.293  1.00  0.00     0.000 C 
BRANCH   9  10
HETATM   10  C   UNL     1      32.238   5.351 -15.108  1.00  0.00     0.004 C 
BRANCH  10  11
HETATM   11  C   UNL     1      33.687   5.507 -15.577  1.00  0.00     0.027 C 
BRANCH  11  12
HETATM   12  C   UNL     1      34.109   6.950 -15.434  1.00  0.00    -0.031 C 
HETATM   13  C   UNL     1      34.150   7.879 -16.410  1.00  0.00    -0.031 C 
BRANCH  13  14
HETATM   14  C   UNL     1      33.792   7.686 -17.869  1.00  0.00     0.027 C 
BRANCH  14  15
HETATM   15  C   UNL     1      33.283   8.997 -18.494  1.00  0.00     0.004 C 
BRANCH  15  16
HETATM   16  C   UNL     1      33.541   9.121 -20.010  1.00  0.00     0.000 C 
BRANCH  16  17
HETATM   17  C   UNL     1      34.278   7.907 -20.601  1.00  0.00     0.000 C 
BRANCH  17  18
HETATM   18  C   UNL     1      33.699   7.521 -21.969  1.00  0.00     0.000 C 
BRANCH  18  19
HETATM   19  C   UNL     1      33.252   6.055 -21.982  1.00  0.00    -0.000 C 
BRANCH  19  20
HETATM   20  C   UNL     1      33.308   5.447 -20.576  1.00  0.00    -0.005 C 
HETATM   21  C   UNL     1      31.911   5.303 -19.982  1.00  0.00     0.005 C 
ENDBRANCH  19  20
ENDBRANCH  18  19
ENDBRANCH  17  18
ENDBRANCH  16  17
ENDBRANCH  15  16
ENDBRANCH  14  15
ENDBRANCH  13  14
ENDBRANCH  11  12
ENDBRANCH  10  11
ENDBRANCH   9  10
ENDBRANCH   8   9
ENDBRANCH   7   8
ENDBRANCH   6   7
ENDBRANCH   5   6
ENDBRANCH   3   5
ENDBRANCH   1   3
TORSDOF 16
ENDMDL
MODEL 15
REMARK VINA RESULT:      -5.1     20.603     22.735
REMARK  16 active torsions:
REMARK  status: ('A' for Active; 'I' for Inactive)
REMARK    1  A    between atoms: O_1  and  C_20 
REMARK    2  A    between atoms: C_3  and  C_4 
REMARK    3  A    between atoms: C_3  and  C_5 
REMARK    4  A    between atoms: C_4  and  C_8 
REMARK    5  A    between atoms: C_5  and  C_11 
REMARK    6  A    between atoms: C_6  and  C_7 
REMARK    7  A    between atoms: C_6  and  C_9 
REMARK    8  A    between atoms: C_7  and  C_10 
REMARK    9  A    between atoms: C_8  and  C_12 
REMARK   10  A    between atoms: C_9  and  C_13 
REMARK   11  A    between atoms: C_10  and  C_14 
REMARK   12  A    between atoms: C_11  and  C_15 
REMARK   13  A    between atoms: C_12  and  C_16 
REMARK   14  A    between atoms: C_13  and  C_17 
REMARK   15  A    between atoms: C_14  and  C_18 
REMARK   16  A    between atoms: C_18  and  C_20 
ROOT
HETATM    1  O   UNL     1      30.173  11.223 -14.649  1.00  0.00    -0.776 OA
HETATM    2  H   UNL     1      30.610  10.784 -15.393  1.00  0.00     0.167 HD
ENDROOT
BRANCH   1   3
HETATM    3  C   UNL     1      29.904  10.566 -13.502  1.00  0.00     0.139 C 
HETATM    4  O   UNL     1      28.824  10.727 -12.949  1.00  0.00    -0.650 OA
BRANCH   3   5
HETATM    5  C   UNL     1      30.946   9.643 -12.926  1.00  0.00     0.110 C 
BRANCH   5   6
HETATM    6  C   UNL     1      32.160  10.388 -12.352  1.00  0.00     0.010 C 
BRANCH   6   7
HETATM    7  C   UNL     1      33.419  10.107 -13.181  1.00  0.00     0.001 C 
BRANCH   7   8
HETATM    8  C   UNL     1      34.531   9.521 -12.305  1.00  0.00     0.000 C 
BRANCH   8   9
HETATM    9  C   UNL     1      34.261   8.046 -11.984  1.00  0.00     0.000 C 
BRANCH   9  10
HETATM   10  C   UNL     1      34.644   7.726 -10.536  1.00  0.00     0.004 C 
BRANCH  10  11
HETATM   11  C   UNL     1      33.570   6.879  -9.848  1.00  0.00     0.027 C 
BRANCH  11  12
HETATM   12  C   UNL     1      32.211   7.487 -10.102  1.00  0.00    -0.031 C 
HETATM   13  C   UNL     1      31.092   6.834 -10.474  1.00  0.00    -0.031 C 
BRANCH  13  14
HETATM   14  C   UNL     1      30.944   5.349 -10.728  1.00  0.00     0.027 C 
BRANCH  14  15
HETATM   15  C   UNL     1      30.083   5.081 -11.975  1.00  0.00     0.004 C 
BRANCH  15  16
HETATM   16  C   UNL     1      30.805   5.341 -13.314  1.00  0.00     0.000 C 
BRANCH  16  17
HETATM   17  C   UNL     1      32.331   5.187 -13.219  1.00  0.00     0.000 C 
BRANCH  17  18
HETATM   18  C   UNL     1      33.018   5.691 -14.496  1.00  0.00     0.000 C 
BRANCH  18  19
HETATM   19  C   UNL     1      32.391   7.006 -14.974  1.00  0.00    -0.000 C 
BRANCH  19  20
HETATM   20  C   UNL     1      33.283   7.698 -16.012  1.00  0.00    -0.005 C 
HETATM   21  C   UNL     1      34.760   7.538 -15.662  1.00  0.00     0.005 C 
ENDBRANCH  19  20
ENDBRANCH  18  19
ENDBRANCH  17  18
ENDBRANCH  16  17
ENDBRANCH  15  16
ENDBRANCH  14  15
ENDBRANCH  13  14
ENDBRANCH  11  12
ENDBRANCH  10  11
ENDBRANCH   9  10
ENDBRANCH   8   9
ENDBRANCH   7   8
ENDBRANCH   6   7
ENDBRANCH   5   6
ENDBRANCH   3   5
ENDBRANCH   1   3
TORSDOF 16
ENDMDL
MODEL 16
REMARK VINA RESULT:      -5.1     20.692     22.459
REMARK  16 active torsions:
REMARK  status: ('A' for Active; 'I' for Inactive)
REMARK    1  A    between atoms: O_1  and  C_20 
REMARK    2  A    between atoms: C_3  and  C_4 
REMARK    3  A    between atoms: C_3  and  C_5 
REMARK    4  A    between atoms: C_4  and  C_8 
REMARK    5  A    between atoms: C_5  and  C_11 
REMARK    6  A    between atoms: C_6  and  C_7 
REMARK    7  A    between atoms: C_6  and  C_9 
REMARK    8  A    between atoms: C_7  and  C_10 
REMARK    9  A    between atoms: C_8  and  C_12 
REMARK   10  A    between atoms: C_9  and  C_13 
REMARK   11  A    between atoms: C_10  and  C_14 
REMARK   12  A    between atoms: C_11  and  C_15 
REMARK   13  A    between atoms: C_12  and  C_16 
REMARK   14  A    between atoms: C_13  and  C_17 
REMARK   15  A    between atoms: C_14  and  C_18 
REMARK   16  A    between atoms: C_18  and  C_20 
ROOT
HETATM    1  O   UNL     1      28.644  10.590 -13.611  1.00  0.00    -0.776 OA
HETATM    2  H   UNL     1      28.975   9.957 -14.264  1.00  0.00     0.167 HD
ENDROOT
BRANCH   1   3
HETATM    3  C   UNL     1      29.470  11.458 -12.989  1.00  0.00     0.139 C 
HETATM    4  O   UNL     1      29.028  12.200 -12.122  1.00  0.00    -0.650 OA
BRANCH   3   5
HETATM    5  C   UNL     1      30.924  11.491 -13.378  1.00  0.00     0.110 C 
BRANCH   5   6
HETATM    6  C   UNL     1      31.799  10.567 -12.520  1.00  0.00     0.010 C 
BRANCH   6   7
HETATM    7  C   UNL     1      31.944   9.186 -13.171  1.00  0.00     0.001 C 
BRANCH   7   8
HETATM    8  C   UNL     1      33.112   9.168 -14.163  1.00  0.00     0.000 C 
BRANCH   8   9
HETATM    9  C   UNL     1      33.920   7.871 -14.040  1.00  0.00     0.000 C 
BRANCH   9  10
HETATM   10  C   UNL     1      33.999   7.150 -15.389  1.00  0.00     0.004 C 
BRANCH  10  11
HETATM   11  C   UNL     1      33.513   5.702 -15.279  1.00  0.00     0.027 C 
BRANCH  11  12
HETATM   12  C   UNL     1      32.013   5.662 -15.444  1.00  0.00    -0.031 C 
HETATM   13  C   UNL     1      31.100   5.452 -14.474  1.00  0.00    -0.031 C 
BRANCH  13  14
HETATM   14  C   UNL     1      31.371   5.200 -13.006  1.00  0.00     0.027 C 
BRANCH  14  15
HETATM   15  C   UNL     1      30.462   6.066 -12.116  1.00  0.00     0.004 C 
BRANCH  15  16
HETATM   16  C   UNL     1      31.048   6.383 -10.725  1.00  0.00     0.000 C 
BRANCH  16  17
HETATM   17  C   UNL     1      32.169   5.418 -10.305  1.00  0.00     0.000 C 
BRANCH  17  18
HETATM   18  C   UNL     1      33.325   6.172  -9.634  1.00  0.00     0.000 C 
BRANCH  18  19
HETATM   19  C   UNL     1      34.293   6.737 -10.679  1.00  0.00    -0.000 C 
BRANCH  19  20
HETATM   20  C   UNL     1      34.430   8.258 -10.540  1.00  0.00    -0.005 C 
HETATM   21  C   UNL     1      34.170   8.705  -9.105  1.00  0.00     0.005 C 
ENDBRANCH  19  20
ENDBRANCH  18  19
ENDBRANCH  17  18
ENDBRANCH  16  17
ENDBRANCH  15  16
ENDBRANCH  14  15
ENDBRANCH  13  14
ENDBRANCH  11  12
ENDBRANCH  10  11
ENDBRANCH   9  10
ENDBRANCH   8   9
ENDBRANCH   7   8
ENDBRANCH   6   7
ENDBRANCH   5   6
ENDBRANCH   3   5
ENDBRANCH   1   3
TORSDOF 16
ENDMDL
MODEL 17
REMARK VINA RESULT:      -5.1      8.735     17.447
REMARK  16 active torsions:
REMARK  status: ('A' for Active; 'I' for Inactive)
REMARK    1  A    between atoms: O_1  and  C_20 
REMARK    2  A    between atoms: C_3  and  C_4 
REMARK    3  A    between atoms: C_3  and  C_5 
REMARK    4  A    between atoms: C_4  and  C_8 
REMARK    5  A    between atoms: C_5  and  C_11 
REMARK    6  A    between atoms: C_6  and  C_7 
REMARK    7  A    between atoms: C_6  and  C_9 
REMARK    8  A    between atoms: C_7  and  C_10 
REMARK    9  A    between atoms: C_8  and  C_12 
REMARK   10  A    between atoms: C_9  and  C_13 
REMARK   11  A    between atoms: C_10  and  C_14 
REMARK   12  A    between atoms: C_11  and  C_15 
REMARK   13  A    between atoms: C_12  and  C_16 
REMARK   14  A    between atoms: C_13  and  C_17 
REMARK   15  A    between atoms: C_14  and  C_18 
REMARK   16  A    between atoms: C_18  and  C_20 
ROOT
HETATM    1  O   UNL     1      47.041  -6.538 -12.757  1.00  0.00    -0.776 OA
HETATM    2  H   UNL     1      46.695  -5.772 -12.278  1.00  0.00     0.167 HD
ENDROOT
BRANCH   1   3
HETATM    3  C   UNL     1      47.540  -6.423 -14.006  1.00  0.00     0.139 C 
HETATM    4  O   UNL     1      48.582  -6.994 -14.299  1.00  0.00    -0.650 OA
BRANCH   3   5
HETATM    5  C   UNL     1      46.797  -5.589 -15.016  1.00  0.00     0.110 C 
BRANCH   5   6
HETATM    6  C   UNL     1      47.662  -5.183 -16.217  1.00  0.00     0.010 C 
BRANCH   6   7
HETATM    7  C   UNL     1      47.118  -5.788 -17.517  1.00  0.00     0.001 C 
BRANCH   7   8
HETATM    8  C   UNL     1      47.865  -7.077 -17.875  1.00  0.00     0.000 C 
BRANCH   8   9
HETATM    9  C   UNL     1      48.350  -7.048 -19.329  1.00  0.00     0.000 C 
BRANCH   9  10
HETATM   10  C   UNL     1      47.574  -6.005 -20.139  1.00  0.00     0.004 C 
BRANCH  10  11
HETATM   11  C   UNL     1      47.892  -6.109 -21.633  1.00  0.00     0.027 C 
BRANCH  11  12
HETATM   12  C   UNL     1      46.827  -5.388 -22.424  1.00  0.00    -0.031 C 
HETATM   13  C   UNL     1      46.392  -5.700 -23.662  1.00  0.00    -0.031 C 
BRANCH  13  14
HETATM   14  C   UNL     1      46.876  -6.834 -24.541  1.00  0.00     0.027 C 
BRANCH  14  15
HETATM   15  C   UNL     1      46.134  -6.850 -25.889  1.00  0.00     0.004 C 
BRANCH  15  16
HETATM   16  C   UNL     1      44.601  -6.967 -25.769  1.00  0.00     0.000 C 
BRANCH  16  17
HETATM   17  C   UNL     1      43.851  -6.349 -26.961  1.00  0.00     0.000 C 
BRANCH  17  18
HETATM   18  C   UNL     1      42.986  -5.162 -26.516  1.00  0.00     0.000 C 
BRANCH  18  19
HETATM   19  C   UNL     1      42.084  -5.551 -25.339  1.00  0.00    -0.000 C 
BRANCH  19  20
HETATM   20  C   UNL     1      41.062  -6.616 -25.755  1.00  0.00    -0.005 C 
HETATM   21  C   UNL     1      40.015  -6.829 -24.667  1.00  0.00     0.005 C 
ENDBRANCH  19  20
ENDBRANCH  18  19
ENDBRANCH  17  18
ENDBRANCH  16  17
ENDBRANCH  15  16
ENDBRANCH  14  15
ENDBRANCH  13  14
ENDBRANCH  11  12
ENDBRANCH  10  11
ENDBRANCH   9  10
ENDBRANCH   8   9
ENDBRANCH   7   8
ENDBRANCH   6   7
ENDBRANCH   5   6
ENDBRANCH   3   5
ENDBRANCH   1   3
TORSDOF 16
ENDMDL
MODEL 18
REMARK VINA RESULT:      -5.1     22.571     25.169
REMARK  16 active torsions:
REMARK  status: ('A' for Active; 'I' for Inactive)
REMARK    1  A    between atoms: O_1  and  C_20 
REMARK    2  A    between atoms: C_3  and  C_4 
REMARK    3  A    between atoms: C_3  and  C_5 
REMARK    4  A    between atoms: C_4  and  C_8 
REMARK    5  A    between atoms: C_5  and  C_11 
REMARK    6  A    between atoms: C_6  and  C_7 
REMARK    7  A    between atoms: C_6  and  C_9 
REMARK    8  A    between atoms: C_7  and  C_10 
REMARK    9  A    between atoms: C_8  and  C_12 
REMARK   10  A    between atoms: C_9  and  C_13 
REMARK   11  A    between atoms: C_10  and  C_14 
REMARK   12  A    between atoms: C_11  and  C_15 
REMARK   13  A    between atoms: C_12  and  C_16 
REMARK   14  A    between atoms: C_13  and  C_17 
REMARK   15  A    between atoms: C_14  and  C_18 
REMARK   16  A    between atoms: C_18  and  C_20 
ROOT
HETATM    1  O   UNL     1      32.969   4.194 -21.213  1.00  0.00    -0.776 OA
HETATM    2  H   UNL     1      32.434   3.450 -20.903  1.00  0.00     0.167 HD
ENDROOT
BRANCH   1   3
HETATM    3  C   UNL     1      32.476   5.105 -22.078  1.00  0.00     0.139 C 
HETATM    4  O   UNL     1      32.997   5.242 -23.177  1.00  0.00    -0.650 OA
BRANCH   3   5
HETATM    5  C   UNL     1      31.289   5.936 -21.667  1.00  0.00     0.110 C 
BRANCH   5   6
HETATM    6  C   UNL     1      31.144   7.226 -22.487  1.00  0.00     0.010 C 
BRANCH   6   7
HETATM    7  C   UNL     1      30.665   8.386 -21.606  1.00  0.00     0.001 C 
BRANCH   7   8
HETATM    8  C   UNL     1      30.505   7.937 -20.149  1.00  0.00     0.000 C 
BRANCH   8   9
HETATM    9  C   UNL     1      30.301   9.140 -19.220  1.00  0.00     0.000 C 
BRANCH   9  10
HETATM   10  C   UNL     1      29.485  10.233 -19.918  1.00  0.00     0.004 C 
BRANCH  10  11
HETATM   11  C   UNL     1      30.365  11.423 -20.309  1.00  0.00     0.027 C 
BRANCH  11  12
HETATM   12  C   UNL     1      31.420  11.636 -19.251  1.00  0.00    -0.031 C 
HETATM   13  C   UNL     1      32.753  11.495 -19.401  1.00  0.00    -0.031 C 
BRANCH  13  14
HETATM   14  C   UNL     1      33.491  11.085 -20.658  1.00  0.00     0.027 C 
BRANCH  14  15
HETATM   15  C   UNL     1      34.560  10.020 -20.352  1.00  0.00     0.004 C 
BRANCH  15  16
HETATM   16  C   UNL     1      34.244   8.621 -20.919  1.00  0.00     0.000 C 
BRANCH  16  17
HETATM   17  C   UNL     1      34.162   7.533 -19.835  1.00  0.00     0.000 C 
BRANCH  17  18
HETATM   18  C   UNL     1      33.960   8.151 -18.445  1.00  0.00     0.000 C 
BRANCH  18  19
HETATM   19  C   UNL     1      33.222   7.181 -17.515  1.00  0.00    -0.000 C 
BRANCH  19  20
HETATM   20  C   UNL     1      32.922   5.856 -18.224  1.00  0.00    -0.005 C 
HETATM   21  C   UNL     1      31.530   5.343 -17.866  1.00  0.00     0.005 C 
ENDBRANCH  19  20
ENDBRANCH  18  19
ENDBRANCH  17  18
ENDBRANCH  16  17
ENDBRANCH  15  16
ENDBRANCH  14  15
ENDBRANCH  13  14
ENDBRANCH  11  12
ENDBRANCH  10  11
ENDBRANCH   9  10
ENDBRANCH   8   9
ENDBRANCH   7   8
ENDBRANCH   6   7
ENDBRANCH   5   6
ENDBRANCH   3   5
ENDBRANCH   1   3
TORSDOF 16
ENDMDL
MODEL 19
REMARK VINA RESULT:      -5.0     21.168     22.811
REMARK  16 active torsions:
REMARK  status: ('A' for Active; 'I' for Inactive)
REMARK    1  A    between atoms: O_1  and  C_20 
REMARK    2  A    between atoms: C_3  and  C_4 
REMARK    3  A    between atoms: C_3  and  C_5 
REMARK    4  A    between atoms: C_4  and  C_8 
REMARK    5  A    between atoms: C_5  and  C_11 
REMARK    6  A    between atoms: C_6  and  C_7 
REMARK    7  A    between atoms: C_6  and  C_9 
REMARK    8  A    between atoms: C_7  and  C_10 
REMARK    9  A    between atoms: C_8  and  C_12 
REMARK   10  A    between atoms: C_9  and  C_13 
REMARK   11  A    between atoms: C_10  and  C_14 
REMARK   12  A    between atoms: C_11  and  C_15 
REMARK   13  A    between atoms: C_12  and  C_16 
REMARK   14  A    between atoms: C_13  and  C_17 
REMARK   15  A    between atoms: C_14  and  C_18 
REMARK   16  A    between atoms: C_18  and  C_20 
ROOT
HETATM    1  O   UNL     1      29.910   9.162 -20.797  1.00  0.00    -0.776 OA
HETATM    2  H   UNL     1      30.405   9.993 -20.821  1.00  0.00     0.167 HD
ENDROOT
BRANCH   1   3
HETATM    3  C   UNL     1      30.512   7.975 -21.016  1.00  0.00     0.139 C 
HETATM    4  O   UNL     1      30.644   7.564 -22.162  1.00  0.00    -0.650 OA
BRANCH   3   5
HETATM    5  C   UNL     1      31.012   7.179 -19.839  1.00  0.00     0.110 C 
BRANCH   5   6
HETATM    6  C   UNL     1      32.298   7.751 -19.227  1.00  0.00     0.010 C 
BRANCH   6   7
HETATM    7  C   UNL     1      32.006   8.471 -17.905  1.00  0.00     0.001 C 
BRANCH   7   8
HETATM    8  C   UNL     1      30.583   8.170 -17.422  1.00  0.00     0.000 C 
BRANCH   8   9
HETATM    9  C   UNL     1      30.601   7.311 -16.153  1.00  0.00     0.000 C 
BRANCH   9  10
HETATM   10  C   UNL     1      30.312   5.843 -16.487  1.00  0.00     0.004 C 
BRANCH  10  11
HETATM   11  C   UNL     1      31.605   5.032 -16.606  1.00  0.00     0.027 C 
BRANCH  11  12
HETATM   12  C   UNL     1      32.336   5.058 -15.285  1.00  0.00    -0.031 C 
HETATM   13  C   UNL     1      33.481   5.715 -15.010  1.00  0.00    -0.031 C 
BRANCH  13  14
HETATM   14  C   UNL     1      34.296   6.566 -15.961  1.00  0.00     0.027 C 
BRANCH  14  15
HETATM   15  C   UNL     1      34.669   7.914 -15.320  1.00  0.00     0.004 C 
BRANCH  15  16
HETATM   16  C   UNL     1      33.587   8.497 -14.388  1.00  0.00     0.000 C 
BRANCH  16  17
HETATM   17  C   UNL     1      34.014   8.528 -12.911  1.00  0.00     0.000 C 
BRANCH  17  18
HETATM   18  C   UNL     1      32.793   8.473 -11.982  1.00  0.00     0.000 C 
BRANCH  18  19
HETATM   19  C   UNL     1      32.335   7.026 -11.762  1.00  0.00    -0.000 C 
BRANCH  19  20
HETATM   20  C   UNL     1      30.839   6.870 -12.059  1.00  0.00    -0.005 C 
HETATM   21  C   UNL     1      30.457   5.401 -12.205  1.00  0.00     0.005 C 
ENDBRANCH  19  20
ENDBRANCH  18  19
ENDBRANCH  17  18
ENDBRANCH  16  17
ENDBRANCH  15  16
ENDBRANCH  14  15
ENDBRANCH  13  14
ENDBRANCH  11  12
ENDBRANCH  10  11
ENDBRANCH   9  10
ENDBRANCH   8   9
ENDBRANCH   7   8
ENDBRANCH   6   7
ENDBRANCH   5   6
ENDBRANCH   3   5
ENDBRANCH   1   3
TORSDOF 16
ENDMDL
MODEL 20
REMARK VINA RESULT:      -5.0     21.171     23.325
REMARK  16 active torsions:
REMARK  status: ('A' for Active; 'I' for Inactive)
REMARK    1  A    between atoms: O_1  and  C_20 
REMARK    2  A    between atoms: C_3  and  C_4 
REMARK    3  A    between atoms: C_3  and  C_5 
REMARK    4  A    between atoms: C_4  and  C_8 
REMARK    5  A    between atoms: C_5  and  C_11 
REMARK    6  A    between atoms: C_6  and  C_7 
REMARK    7  A    between atoms: C_6  and  C_9 
REMARK    8  A    between atoms: C_7  and  C_10 
REMARK    9  A    between atoms: C_8  and  C_12 
REMARK   10  A    between atoms: C_9  and  C_13 
REMARK   11  A    between atoms: C_10  and  C_14 
REMARK   12  A    between atoms: C_11  and  C_15 
REMARK   13  A    between atoms: C_12  and  C_16 
REMARK   14  A    between atoms: C_13  and  C_17 
REMARK   15  A    between atoms: C_14  and  C_18 
REMARK   16  A    between atoms: C_18  and  C_20 
ROOT
HETATM    1  O   UNL     1      28.832  12.037 -15.656  1.00  0.00    -0.776 OA
HETATM    2  H   UNL     1      29.096  12.870 -15.241  1.00  0.00     0.167 HD
ENDROOT
BRANCH   1   3
HETATM    3  C   UNL     1      28.918  10.862 -14.997  1.00  0.00     0.139 C 
HETATM    4  O   UNL     1      28.040  10.543 -14.207  1.00  0.00    -0.650 OA
BRANCH   3   5
HETATM    5  C   UNL     1      30.101   9.966 -15.252  1.00  0.00     0.110 C 
BRANCH   5   6
HETATM    6  C   UNL     1      31.238  10.668 -16.007  1.00  0.00     0.010 C 
BRANCH   6   7
HETATM    7  C   UNL     1      32.586  10.431 -15.315  1.00  0.00     0.001 C 
BRANCH   7   8
HETATM    8  C   UNL     1      32.706   8.981 -14.834  1.00  0.00     0.000 C 
BRANCH   8   9
HETATM    9  C   UNL     1      33.897   8.277 -15.496  1.00  0.00     0.000 C 
BRANCH   9  10
HETATM   10  C   UNL     1      33.720   8.224 -17.017  1.00  0.00     0.004 C 
BRANCH  10  11
HETATM   11  C   UNL     1      33.071   6.910 -17.459  1.00  0.00     0.027 C 
BRANCH  11  12
HETATM   12  C   UNL     1      31.582   7.112 -17.611  1.00  0.00    -0.031 C 
HETATM   13  C   UNL     1      30.607   6.378 -17.039  1.00  0.00    -0.031 C 
BRANCH  13  14
HETATM   14  C   UNL     1      30.780   5.184 -16.124  1.00  0.00     0.027 C 
BRANCH  14  15
HETATM   15  C   UNL     1      30.977   5.627 -14.663  1.00  0.00     0.004 C 
BRANCH  15  16
HETATM   16  C   UNL     1      32.381   5.337 -14.094  1.00  0.00     0.000 C 
BRANCH  16  17
HETATM   17  C   UNL     1      32.387   5.128 -12.571  1.00  0.00     0.000 C 
BRANCH  17  18
HETATM   18  C   UNL     1      32.645   6.449 -11.833  1.00  0.00     0.000 C 
BRANCH  18  19
HETATM   19  C   UNL     1      31.529   6.741 -10.823  1.00  0.00    -0.000 C 
BRANCH  19  20
HETATM   20  C   UNL     1      30.900   5.442 -10.305  1.00  0.00    -0.005 C 
HETATM   21  C   UNL     1      30.973   5.364  -8.783  1.00  0.00     0.005 C 
ENDBRANCH  19  20
ENDBRANCH  18  19
ENDBRANCH  17  18
ENDBRANCH  16  17
ENDBRANCH  15  16
ENDBRANCH  14  15
ENDBRANCH  13  14
ENDBRANCH  11  12
ENDBRANCH  10  11
ENDBRANCH   9  10
ENDBRANCH   8   9
ENDBRANCH   7   8
ENDBRANCH   6   7
ENDBRANCH   5   6
ENDBRANCH   3   5
ENDBRANCH   1   3
TORSDOF 16
ENDMDL
