MODEL 1
REMARK VINA RESULT:      -8.0      0.000      0.000
REMARK  2 active torsions:
REMARK  status: ('A' for Active; 'I' for Inactive)
REMARK    1  A    between atoms: N_3  and  C_15 
REMARK    2  A    between atoms: C_5  and  C_7 
ROOT
HETATM    1  S   UNL     1       3.489   9.539 -11.695  1.00  0.00    -0.069 SA
HETATM    2  N   UNL     1       5.982   9.982 -11.803  1.00  0.00    -0.344 N 
HETATM    3  C   UNL     1       5.637   9.884 -10.478  1.00  0.00     0.052 A 
HETATM    4  C   UNL     1       4.893   9.784 -12.621  1.00  0.00     0.087 A 
HETATM    5  C   UNL     1       4.294   9.641 -10.238  1.00  0.00     0.034 A 
HETATM    6  C   UNL     1       6.513  10.024  -9.387  1.00  0.00     0.031 A 
HETATM    7  C   UNL     1       3.767   9.521  -8.955  1.00  0.00     0.028 A 
HETATM    8  C   UNL     1       7.352  10.326 -12.210  1.00  0.00     0.157 C 
HETATM    9  C   UNL     1       4.638   9.653  -7.858  1.00  0.00    -0.061 A 
HETATM   10  C   UNL     1       6.008   9.906  -8.082  1.00  0.00     0.009 A 
HETATM   11  C   UNL     1       4.125   9.533  -6.455  1.00  0.00     0.048 C 
ENDROOT
BRANCH   4  12
HETATM   12  C   UNL     1       4.851   9.736 -14.118  1.00  0.00    -0.002 A 
HETATM   13  C   UNL     1       3.652   9.770 -14.852  1.00  0.00     0.016 A 
HETATM   14  C   UNL     1       3.660   9.745 -16.250  1.00  0.00     0.030 A 
HETATM   15  C   UNL     1       4.869   9.695 -16.975  1.00  0.00     0.029 A 
HETATM   16  C   UNL     1       6.071   9.684 -16.235  1.00  0.00     0.030 A 
HETATM   17  C   UNL     1       6.059   9.713 -14.838  1.00  0.00     0.016 A 
BRANCH  15  18
HETATM   18  N   UNL     1       4.878   9.669 -18.419  1.00  0.00    -0.390 N 
HETATM   19  C   UNL     1       3.636   9.528 -19.166  1.00  0.00     0.149 C 
HETATM   20  C   UNL     1       6.130   9.782 -19.155  1.00  0.00     0.149 C 
ENDBRANCH  15  18
ENDBRANCH   4  12
TORSDOF 2
ENDMDL
MODEL 2
REMARK VINA RESULT:      -7.5     25.831     26.629
REMARK  2 active torsions:
REMARK  status: ('A' for Active; 'I' for Inactive)
REMARK    1  A    between atoms: N_3  and  C_15 
REMARK    2  A    between atoms: C_5  and  C_7 
ROOT
HETATM    1  S   UNL     1      31.595   5.270 -12.899  1.00  0.00    -0.069 SA
HETATM    2  N   UNL     1      30.938   7.665 -13.400  1.00  0.00    -0.344 N 
HETATM    3  C   UNL     1      30.952   7.518 -12.036  1.00  0.00     0.052 A 
HETATM    4  C   UNL     1      31.304   6.500 -14.035  1.00  0.00     0.087 A 
HETATM    5  C   UNL     1      31.295   6.253 -11.586  1.00  0.00     0.034 A 
HETATM    6  C   UNL     1      30.639   8.516 -11.097  1.00  0.00     0.031 A 
HETATM    7  C   UNL     1      31.351   5.922 -10.235  1.00  0.00     0.028 A 
HETATM    8  C   UNL     1      30.506   8.923 -14.026  1.00  0.00     0.157 C 
HETATM    9  C   UNL     1      31.045   6.918  -9.289  1.00  0.00    -0.061 A 
HETATM   10  C   UNL     1      30.689   8.211  -9.727  1.00  0.00     0.009 A 
HETATM   11  C   UNL     1      31.091   6.619  -7.821  1.00  0.00     0.048 C 
ENDROOT
BRANCH   4  12
HETATM   12  C   UNL     1      31.485   6.257 -15.503  1.00  0.00    -0.002 A 
HETATM   13  C   UNL     1      32.641   6.643 -16.206  1.00  0.00     0.016 A 
HETATM   14  C   UNL     1      32.777   6.377 -17.571  1.00  0.00     0.030 A 
HETATM   15  C   UNL     1      31.767   5.704 -18.291  1.00  0.00     0.029 A 
HETATM   16  C   UNL     1      30.619   5.300 -17.577  1.00  0.00     0.030 A 
HETATM   17  C   UNL     1      30.488   5.563 -16.211  1.00  0.00     0.016 A 
BRANCH  15  18
HETATM   18  N   UNL     1      31.907   5.430 -19.702  1.00  0.00    -0.390 N 
HETATM   19  C   UNL     1      30.731   5.301 -20.553  1.00  0.00     0.149 C 
HETATM   20  C   UNL     1      33.225   5.275 -20.301  1.00  0.00     0.149 C 
ENDBRANCH  15  18
ENDBRANCH   4  12
TORSDOF 2
ENDMDL
MODEL 3
REMARK VINA RESULT:      -7.5     25.816     26.620
REMARK  2 active torsions:
REMARK  status: ('A' for Active; 'I' for Inactive)
REMARK    1  A    between atoms: N_3  and  C_15 
REMARK    2  A    between atoms: C_5  and  C_7 
ROOT
HETATM    1  S   UNL     1      31.543   5.248 -12.838  1.00  0.00    -0.069 SA
HETATM    2  N   UNL     1      30.915   7.636 -13.406  1.00  0.00    -0.344 N 
HETATM    3  C   UNL     1      30.929   7.527 -12.038  1.00  0.00     0.052 A 
HETATM    4  C   UNL     1      31.266   6.449 -14.008  1.00  0.00     0.087 A 
HETATM    5  C   UNL     1      31.258   6.271 -11.553  1.00  0.00     0.034 A 
HETATM    6  C   UNL     1      30.630   8.556 -11.127  1.00  0.00     0.031 A 
HETATM    7  C   UNL     1      31.312   5.979 -10.193  1.00  0.00     0.028 A 
HETATM    8  C   UNL     1      30.498   8.881 -14.066  1.00  0.00     0.157 C 
HETATM    9  C   UNL     1      31.019   7.004  -9.275  1.00  0.00    -0.061 A 
HETATM   10  C   UNL     1      30.679   8.289  -9.750  1.00  0.00     0.009 A 
HETATM   11  C   UNL     1      31.063   6.746  -7.799  1.00  0.00     0.048 C 
ENDROOT
BRANCH   4  12
HETATM   12  C   UNL     1      31.442   6.163 -15.468  1.00  0.00    -0.002 A 
HETATM   13  C   UNL     1      30.457   5.532 -16.249  1.00  0.00     0.016 A 
HETATM   14  C   UNL     1      30.653   5.304 -17.614  1.00  0.00     0.030 A 
HETATM   15  C   UNL     1      31.841   5.706 -18.260  1.00  0.00     0.029 A 
HETATM   16  C   UNL     1      32.818   6.359 -17.478  1.00  0.00     0.030 A 
HETATM   17  C   UNL     1      32.616   6.589 -16.115  1.00  0.00     0.016 A 
BRANCH  15  18
HETATM   18  N   UNL     1      32.046   5.470 -19.670  1.00  0.00    -0.390 N 
HETATM   19  C   UNL     1      30.911   5.261 -20.559  1.00  0.00     0.149 C 
HETATM   20  C   UNL     1      33.390   5.436 -20.229  1.00  0.00     0.149 C 
ENDBRANCH  15  18
ENDBRANCH   4  12
TORSDOF 2
ENDMDL
MODEL 4
REMARK VINA RESULT:      -7.5     26.132     26.862
REMARK  2 active torsions:
REMARK  status: ('A' for Active; 'I' for Inactive)
REMARK    1  A    between atoms: N_3  and  C_15 
REMARK    2  A    between atoms: C_5  and  C_7 
ROOT
HETATM    1  S   UNL     1      30.382   5.472 -11.709  1.00  0.00    -0.069 SA
HETATM    2  N   UNL     1      32.573   6.733 -11.872  1.00  0.00    -0.344 N 
HETATM    3  C   UNL     1      32.403   6.370 -10.560  1.00  0.00     0.052 A 
HETATM    4  C   UNL     1      31.538   6.280 -12.658  1.00  0.00     0.087 A 
HETATM    5  C   UNL     1      31.240   5.665 -10.293  1.00  0.00     0.034 A 
HETATM    6  C   UNL     1      33.282   6.666  -9.503  1.00  0.00     0.031 A 
HETATM    7  C   UNL     1      30.901   5.225  -9.016  1.00  0.00     0.028 A 
HETATM    8  C   UNL     1      33.712   7.562 -12.291  1.00  0.00     0.157 C 
HETATM    9  C   UNL     1      31.779   5.511  -7.955  1.00  0.00    -0.061 A 
HETATM   10  C   UNL     1      32.966   6.232  -8.206  1.00  0.00     0.009 A 
HETATM   11  C   UNL     1      31.465   5.061  -6.560  1.00  0.00     0.048 C 
ENDROOT
BRANCH   4  12
HETATM   12  C   UNL     1      31.376   6.398 -14.143  1.00  0.00    -0.002 A 
HETATM   13  C   UNL     1      30.889   7.558 -14.770  1.00  0.00     0.016 A 
HETATM   14  C   UNL     1      30.774   7.633 -16.162  1.00  0.00     0.030 A 
HETATM   15  C   UNL     1      31.152   6.552 -16.986  1.00  0.00     0.029 A 
HETATM   16  C   UNL     1      31.662   5.398 -16.354  1.00  0.00     0.030 A 
HETATM   17  C   UNL     1      31.778   5.329 -14.963  1.00  0.00     0.016 A 
BRANCH  15  18
HETATM   18  N   UNL     1      31.034   6.628 -18.424  1.00  0.00    -0.390 N 
HETATM   19  C   UNL     1      31.076   5.419 -19.236  1.00  0.00     0.149 C 
HETATM   20  C   UNL     1      30.872   7.913 -19.088  1.00  0.00     0.149 C 
ENDBRANCH  15  18
ENDBRANCH   4  12
TORSDOF 2
ENDMDL
MODEL 5
REMARK VINA RESULT:      -7.5     26.287     28.199
REMARK  2 active torsions:
REMARK  status: ('A' for Active; 'I' for Inactive)
REMARK    1  A    between atoms: N_3  and  C_15 
REMARK    2  A    between atoms: C_5  and  C_7 
ROOT
HETATM    1  S   UNL     1      30.514   5.299 -16.156  1.00  0.00    -0.069 SA
HETATM    2  N   UNL     1      32.802   6.390 -16.127  1.00  0.00    -0.344 N 
HETATM    3  C   UNL     1      32.473   6.156 -17.439  1.00  0.00     0.052 A 
HETATM    4  C   UNL     1      31.794   5.991 -15.278  1.00  0.00     0.087 A 
HETATM    5  C   UNL     1      31.239   5.557 -17.636  1.00  0.00     0.034 A 
HETATM    6  C   UNL     1      33.275   6.455 -18.554  1.00  0.00     0.031 A 
HETATM    7  C   UNL     1      30.748   5.240 -18.899  1.00  0.00     0.028 A 
HETATM    8  C   UNL     1      34.115   6.936 -15.757  1.00  0.00     0.157 C 
HETATM    9  C   UNL     1      31.542   5.541 -20.021  1.00  0.00    -0.061 A 
HETATM   10  C   UNL     1      32.804   6.147 -19.841  1.00  0.00     0.009 A 
HETATM   11  C   UNL     1      31.064   5.223 -21.406  1.00  0.00     0.048 C 
ENDROOT
BRANCH   4  12
HETATM   12  C   UNL     1      31.722   6.135 -13.788  1.00  0.00    -0.002 A 
HETATM   13  C   UNL     1      31.017   7.172 -13.152  1.00  0.00     0.016 A 
HETATM   14  C   UNL     1      30.957   7.255 -11.757  1.00  0.00     0.030 A 
HETATM   15  C   UNL     1      31.593   6.298 -10.939  1.00  0.00     0.029 A 
HETATM   16  C   UNL     1      32.281   5.246 -11.581  1.00  0.00     0.030 A 
HETATM   17  C   UNL     1      32.334   5.164 -12.975  1.00  0.00     0.016 A 
BRANCH  15  18
HETATM   18  N   UNL     1      31.533   6.383  -9.499  1.00  0.00    -0.390 N 
HETATM   19  C   UNL     1      32.021   5.289  -8.670  1.00  0.00     0.149 C 
HETATM   20  C   UNL     1      30.983   7.564  -8.847  1.00  0.00     0.149 C 
ENDBRANCH  15  18
ENDBRANCH   4  12
TORSDOF 2
ENDMDL
MODEL 6
REMARK VINA RESULT:      -7.5     26.586     27.402
REMARK  2 active torsions:
REMARK  status: ('A' for Active; 'I' for Inactive)
REMARK    1  A    between atoms: N_3  and  C_15 
REMARK    2  A    between atoms: C_5  and  C_7 
ROOT
HETATM    1  S   UNL     1      31.023   5.244 -13.352  1.00  0.00    -0.069 SA
HETATM    2  N   UNL     1      32.994   6.808 -13.648  1.00  0.00    -0.344 N 
HETATM    3  C   UNL     1      32.915   6.492 -12.315  1.00  0.00     0.052 A 
HETATM    4  C   UNL     1      32.017   6.166 -14.376  1.00  0.00     0.087 A 
HETATM    5  C   UNL     1      31.880   5.635 -11.976  1.00  0.00     0.034 A 
HETATM    6  C   UNL     1      33.767   6.970 -11.305  1.00  0.00     0.031 A 
HETATM    7  C   UNL     1      31.646   5.216 -10.669  1.00  0.00     0.028 A 
HETATM    8  C   UNL     1      33.982   7.776 -14.144  1.00  0.00     0.157 C 
HETATM    9  C   UNL     1      32.498   5.685  -9.653  1.00  0.00    -0.061 A 
HETATM   10  C   UNL     1      33.555   6.561  -9.978  1.00  0.00     0.009 A 
HETATM   11  C   UNL     1      32.294   5.265  -8.228  1.00  0.00     0.048 C 
ENDROOT
BRANCH   4  12
HETATM   12  C   UNL     1      31.800   6.181 -15.858  1.00  0.00    -0.002 A 
HETATM   13  C   UNL     1      31.009   7.146 -16.506  1.00  0.00     0.016 A 
HETATM   14  C   UNL     1      30.850   7.137 -17.895  1.00  0.00     0.030 A 
HETATM   15  C   UNL     1      31.485   6.165 -18.697  1.00  0.00     0.029 A 
HETATM   16  C   UNL     1      32.296   5.212 -18.046  1.00  0.00     0.030 A 
HETATM   17  C   UNL     1      32.456   5.228 -16.658  1.00  0.00     0.016 A 
BRANCH  15  18
HETATM   18  N   UNL     1      31.322   6.154 -20.132  1.00  0.00    -0.390 N 
HETATM   19  C   UNL     1      31.826   5.042 -20.927  1.00  0.00     0.149 C 
HETATM   20  C   UNL     1      30.651   7.253 -20.812  1.00  0.00     0.149 C 
ENDBRANCH  15  18
ENDBRANCH   4  12
TORSDOF 2
ENDMDL
MODEL 7
REMARK VINA RESULT:      -7.4     26.289     27.944
REMARK  2 active torsions:
REMARK  status: ('A' for Active; 'I' for Inactive)
REMARK    1  A    between atoms: N_3  and  C_15 
REMARK    2  A    between atoms: C_5  and  C_7 
ROOT
HETATM    1  S   UNL     1      31.740   4.927 -16.908  1.00  0.00    -0.069 SA
HETATM    2  N   UNL     1      31.255   7.393 -16.589  1.00  0.00    -0.344 N 
HETATM    3  C   UNL     1      31.103   7.112 -17.924  1.00  0.00     0.052 A 
HETATM    4  C   UNL     1      31.586   6.265 -15.872  1.00  0.00     0.087 A 
HETATM    5  C   UNL     1      31.333   5.791 -18.275  1.00  0.00     0.034 A 
HETATM    6  C   UNL     1      30.758   8.036 -18.925  1.00  0.00     0.031 A 
HETATM    7  C   UNL     1      31.232   5.330 -19.584  1.00  0.00     0.028 A 
HETATM    8  C   UNL     1      31.132   8.767 -16.082  1.00  0.00     0.157 C 
HETATM    9  C   UNL     1      30.882   6.248 -20.592  1.00  0.00    -0.061 A 
HETATM   10  C   UNL     1      30.647   7.598 -20.255  1.00  0.00     0.009 A 
HETATM   11  C   UNL     1      30.758   5.807 -22.019  1.00  0.00     0.048 C 
ENDROOT
BRANCH   4  12
HETATM   12  C   UNL     1      31.769   6.125 -14.392  1.00  0.00    -0.002 A 
HETATM   13  C   UNL     1      32.890   6.628 -13.708  1.00  0.00     0.016 A 
HETATM   14  C   UNL     1      33.011   6.494 -12.322  1.00  0.00     0.030 A 
HETATM   15  C   UNL     1      32.010   5.858 -11.558  1.00  0.00     0.029 A 
HETATM   16  C   UNL     1      30.876   5.374 -12.245  1.00  0.00     0.030 A 
HETATM   17  C   UNL     1      30.757   5.514 -13.630  1.00  0.00     0.016 A 
BRANCH  15  18
HETATM   18  N   UNL     1      32.133   5.718 -10.126  1.00  0.00    -0.390 N 
HETATM   19  C   UNL     1      33.386   6.040  -9.455  1.00  0.00     0.149 C 
HETATM   20  C   UNL     1      31.010   5.251  -9.326  1.00  0.00     0.149 C 
ENDBRANCH  15  18
ENDBRANCH   4  12
TORSDOF 2
ENDMDL
MODEL 8
REMARK VINA RESULT:      -7.3     26.210     27.973
REMARK  2 active torsions:
REMARK  status: ('A' for Active; 'I' for Inactive)
REMARK    1  A    between atoms: N_3  and  C_15 
REMARK    2  A    between atoms: C_5  and  C_7 
ROOT
HETATM    1  S   UNL     1      32.001   4.920 -16.858  1.00  0.00    -0.069 SA
HETATM    2  N   UNL     1      31.149   7.288 -16.565  1.00  0.00    -0.344 N 
HETATM    3  C   UNL     1      31.142   7.011 -17.908  1.00  0.00     0.052 A 
HETATM    4  C   UNL     1      31.579   6.206 -15.830  1.00  0.00     0.087 A 
HETATM    5  C   UNL     1      31.584   5.742 -18.248  1.00  0.00     0.034 A 
HETATM    6  C   UNL     1      30.749   7.895 -18.929  1.00  0.00     0.031 A 
HETATM    7  C   UNL     1      31.652   5.294 -19.564  1.00  0.00     0.028 A 
HETATM    8  C   UNL     1      30.794   8.622 -16.060  1.00  0.00     0.157 C 
HETATM    9  C   UNL     1      31.254   6.170 -20.591  1.00  0.00    -0.061 A 
HETATM   10  C   UNL     1      30.806   7.468 -20.265  1.00  0.00     0.009 A 
HETATM   11  C   UNL     1      31.306   5.741 -22.026  1.00  0.00     0.048 C 
ENDROOT
BRANCH   4  12
HETATM   12  C   UNL     1      31.664   6.067 -14.341  1.00  0.00    -0.002 A 
HETATM   13  C   UNL     1      30.695   5.391 -13.578  1.00  0.00     0.016 A 
HETATM   14  C   UNL     1      30.826   5.266 -12.192  1.00  0.00     0.030 A 
HETATM   15  C   UNL     1      31.938   5.803 -11.510  1.00  0.00     0.029 A 
HETATM   16  C   UNL     1      32.920   6.460 -12.282  1.00  0.00     0.030 A 
HETATM   17  C   UNL     1      32.788   6.580 -13.667  1.00  0.00     0.016 A 
BRANCH  15  18
HETATM   18  N   UNL     1      32.074   5.675 -10.078  1.00  0.00    -0.390 N 
HETATM   19  C   UNL     1      30.937   5.281  -9.257  1.00  0.00     0.149 C 
HETATM   20  C   UNL     1      33.350   5.937  -9.427  1.00  0.00     0.149 C 
ENDBRANCH  15  18
ENDBRANCH   4  12
TORSDOF 2
ENDMDL
MODEL 9
REMARK VINA RESULT:      -7.2     26.061     27.906
REMARK  2 active torsions:
REMARK  status: ('A' for Active; 'I' for Inactive)
REMARK    1  A    between atoms: N_3  and  C_15 
REMARK    2  A    between atoms: C_5  and  C_7 
ROOT
HETATM    1  S   UNL     1      31.868   5.005 -12.331  1.00  0.00    -0.069 SA
HETATM    2  N   UNL     1      31.193   7.420 -11.966  1.00  0.00    -0.344 N 
HETATM    3  C   UNL     1      31.075   7.157 -13.308  1.00  0.00     0.052 A 
HETATM    4  C   UNL     1      31.601   6.305 -11.269  1.00  0.00     0.087 A 
HETATM    5  C   UNL     1      31.410   5.865 -13.684  1.00  0.00     0.034 A 
HETATM    6  C   UNL     1      30.671   8.074 -14.293  1.00  0.00     0.031 A 
HETATM    7  C   UNL     1      31.357   5.427 -15.004  1.00  0.00     0.028 A 
HETATM    8  C   UNL     1      30.960   8.768 -11.431  1.00  0.00     0.157 C 
HETATM    9  C   UNL     1      30.947   6.337 -15.996  1.00  0.00    -0.061 A 
HETATM   10  C   UNL     1      30.607   7.658 -15.633  1.00  0.00     0.009 A 
HETATM   11  C   UNL     1      30.872   5.920 -17.433  1.00  0.00     0.048 C 
ENDROOT
BRANCH   4  12
HETATM   12  C   UNL     1      31.781   6.146  -9.790  1.00  0.00    -0.002 A 
HETATM   13  C   UNL     1      32.872   6.689  -9.088  1.00  0.00     0.016 A 
HETATM   14  C   UNL     1      32.988   6.536  -7.704  1.00  0.00     0.030 A 
HETATM   15  C   UNL     1      32.013   5.840  -6.959  1.00  0.00     0.029 A 
HETATM   16  C   UNL     1      30.908   5.315  -7.664  1.00  0.00     0.030 A 
HETATM   17  C   UNL     1      30.793   5.475  -9.047  1.00  0.00     0.016 A 
BRANCH  15  18
HETATM   18  N   UNL     1      32.133   5.680  -5.529  1.00  0.00    -0.390 N 
HETATM   19  C   UNL     1      30.966   5.357  -4.718  1.00  0.00     0.149 C 
HETATM   20  C   UNL     1      33.421   5.839  -4.870  1.00  0.00     0.149 C 
ENDBRANCH  15  18
ENDBRANCH   4  12
TORSDOF 2
ENDMDL
MODEL 10
REMARK VINA RESULT:      -7.2     25.994     26.763
REMARK  2 active torsions:
REMARK  status: ('A' for Active; 'I' for Inactive)
REMARK    1  A    between atoms: N_3  and  C_15 
REMARK    2  A    between atoms: C_5  and  C_7 
ROOT
HETATM    1  S   UNL     1      31.599   5.325  -8.409  1.00  0.00    -0.069 SA
HETATM    2  N   UNL     1      30.943   7.708  -8.967  1.00  0.00    -0.344 N 
HETATM    3  C   UNL     1      30.964   7.596  -7.600  1.00  0.00     0.052 A 
HETATM    4  C   UNL     1      31.305   6.527  -9.574  1.00  0.00     0.087 A 
HETATM    5  C   UNL     1      31.308   6.342  -7.120  1.00  0.00     0.034 A 
HETATM    6  C   UNL     1      30.658   8.619  -6.686  1.00  0.00     0.031 A 
HETATM    7  C   UNL     1      31.371   6.047  -5.761  1.00  0.00     0.028 A 
HETATM    8  C   UNL     1      30.510   8.950  -9.623  1.00  0.00     0.157 C 
HETATM    9  C   UNL     1      31.072   7.067  -4.839  1.00  0.00    -0.061 A 
HETATM   10  C   UNL     1      30.715   8.349  -5.309  1.00  0.00     0.009 A 
HETATM   11  C   UNL     1      31.124   6.805  -3.364  1.00  0.00     0.048 C 
ENDROOT
BRANCH   4  12
HETATM   12  C   UNL     1      31.477   6.246 -11.036  1.00  0.00    -0.002 A 
HETATM   13  C   UNL     1      32.641   6.587 -11.749  1.00  0.00     0.016 A 
HETATM   14  C   UNL     1      32.769   6.286 -13.108  1.00  0.00     0.030 A 
HETATM   15  C   UNL     1      31.742   5.622 -13.811  1.00  0.00     0.029 A 
HETATM   16  C   UNL     1      30.586   5.262 -13.087  1.00  0.00     0.030 A 
HETATM   17  C   UNL     1      30.463   5.560 -11.728  1.00  0.00     0.016 A 
BRANCH  15  18
HETATM   18  N   UNL     1      31.873   5.312 -15.216  1.00  0.00    -0.390 N 
HETATM   19  C   UNL     1      30.695   5.222 -16.068  1.00  0.00     0.149 C 
HETATM   20  C   UNL     1      33.184   5.083 -15.806  1.00  0.00     0.149 C 
ENDBRANCH  15  18
ENDBRANCH   4  12
TORSDOF 2
ENDMDL
MODEL 11
REMARK VINA RESULT:      -7.2     26.555     28.330
REMARK  2 active torsions:
REMARK  status: ('A' for Active; 'I' for Inactive)
REMARK    1  A    between atoms: N_3  and  C_15 
REMARK    2  A    between atoms: C_5  and  C_7 
ROOT
HETATM    1  S   UNL     1      31.201   5.287 -12.993  1.00  0.00    -0.069 SA
HETATM    2  N   UNL     1      33.076   6.968 -12.709  1.00  0.00    -0.344 N 
HETATM    3  C   UNL     1      33.007   6.648 -14.042  1.00  0.00     0.052 A 
HETATM    4  C   UNL     1      32.109   6.310 -11.984  1.00  0.00     0.087 A 
HETATM    5  C   UNL     1      32.023   5.730 -14.374  1.00  0.00     0.034 A 
HETATM    6  C   UNL     1      33.842   7.153 -15.054  1.00  0.00     0.031 A 
HETATM    7  C   UNL     1      31.817   5.285 -15.677  1.00  0.00     0.028 A 
HETATM    8  C   UNL     1      34.125   7.858 -12.193  1.00  0.00     0.157 C 
HETATM    9  C   UNL     1      32.644   5.790 -16.696  1.00  0.00    -0.061 A 
HETATM   10  C   UNL     1      33.654   6.723 -16.377  1.00  0.00     0.009 A 
HETATM   11  C   UNL     1      32.466   5.347 -18.117  1.00  0.00     0.048 C 
ENDROOT
BRANCH   4  12
HETATM   12  C   UNL     1      31.796   6.433 -10.523  1.00  0.00    -0.002 A 
HETATM   13  C   UNL     1      31.114   7.534  -9.977  1.00  0.00     0.016 A 
HETATM   14  C   UNL     1      30.823   7.598  -8.611  1.00  0.00     0.030 A 
HETATM   15  C   UNL     1      31.194   6.557  -7.734  1.00  0.00     0.029 A 
HETATM   16  C   UNL     1      31.859   5.444  -8.290  1.00  0.00     0.030 A 
HETATM   17  C   UNL     1      32.144   5.381  -9.656  1.00  0.00     0.016 A 
BRANCH  15  18
HETATM   18  N   UNL     1      30.895   6.623  -6.322  1.00  0.00    -0.390 N 
HETATM   19  C   UNL     1      30.584   7.897  -5.688  1.00  0.00     0.149 C 
HETATM   20  C   UNL     1      30.900   5.417  -5.506  1.00  0.00     0.149 C 
ENDBRANCH  15  18
ENDBRANCH   4  12
TORSDOF 2
ENDMDL
MODEL 12
REMARK VINA RESULT:      -7.2     26.474     27.522
REMARK  2 active torsions:
REMARK  status: ('A' for Active; 'I' for Inactive)
REMARK    1  A    between atoms: N_3  and  C_15 
REMARK    2  A    between atoms: C_5  and  C_7 
ROOT
HETATM    1  S   UNL     1      30.547   5.364 -16.528  1.00  0.00    -0.069 SA
HETATM    2  N   UNL     1      32.722   6.663 -16.493  1.00  0.00    -0.344 N 
HETATM    3  C   UNL     1      32.400   6.364 -15.193  1.00  0.00     0.052 A 
HETATM    4  C   UNL     1      31.797   6.148 -17.372  1.00  0.00     0.087 A 
HETATM    5  C   UNL     1      31.225   5.647 -15.031  1.00  0.00     0.034 A 
HETATM    6  C   UNL     1      33.139   6.731 -14.056  1.00  0.00     0.031 A 
HETATM    7  C   UNL     1      30.741   5.264 -13.783  1.00  0.00     0.028 A 
HETATM    8  C   UNL     1      33.890   7.495 -16.815  1.00  0.00     0.157 C 
HETATM    9  C   UNL     1      31.479   5.624 -12.640  1.00  0.00    -0.061 A 
HETATM   10  C   UNL     1      32.675   6.357 -12.785  1.00  0.00     0.009 A 
HETATM   11  C   UNL     1      31.005   5.238 -11.271  1.00  0.00     0.048 C 
ENDROOT
BRANCH   4  12
HETATM   12  C   UNL     1      31.814   6.187 -18.870  1.00  0.00    -0.002 A 
HETATM   13  C   UNL     1      32.575   5.298 -19.650  1.00  0.00     0.016 A 
HETATM   14  C   UNL     1      32.544   5.355 -21.047  1.00  0.00     0.030 A 
HETATM   15  C   UNL     1      31.743   6.298 -21.724  1.00  0.00     0.029 A 
HETATM   16  C   UNL     1      30.964   7.174 -20.937  1.00  0.00     0.030 A 
HETATM   17  C   UNL     1      30.993   7.111 -19.542  1.00  0.00     0.016 A 
BRANCH  15  18
HETATM   18  N   UNL     1      31.712   6.359 -23.166  1.00  0.00    -0.390 N 
HETATM   19  C   UNL     1      32.370   5.335 -23.966  1.00  0.00     0.149 C 
HETATM   20  C   UNL     1      31.022   7.445 -23.849  1.00  0.00     0.149 C 
ENDBRANCH  15  18
ENDBRANCH   4  12
TORSDOF 2
ENDMDL
MODEL 13
REMARK VINA RESULT:      -7.2     26.255     26.918
REMARK  2 active torsions:
REMARK  status: ('A' for Active; 'I' for Inactive)
REMARK    1  A    between atoms: N_3  and  C_15 
REMARK    2  A    between atoms: C_5  and  C_7 
ROOT
HETATM    1  S   UNL     1      31.372   5.078 -11.412  1.00  0.00    -0.069 SA
HETATM    2  N   UNL     1      31.407   7.611 -11.444  1.00  0.00    -0.344 N 
HETATM    3  C   UNL     1      31.214   7.218 -10.144  1.00  0.00     0.052 A 
HETATM    4  C   UNL     1      31.544   6.527 -12.282  1.00  0.00     0.087 A 
HETATM    5  C   UNL     1      31.169   5.847  -9.946  1.00  0.00     0.034 A 
HETATM    6  C   UNL     1      31.048   8.074  -9.041  1.00  0.00     0.031 A 
HETATM    7  C   UNL     1      30.972   5.272  -8.694  1.00  0.00     0.028 A 
HETATM    8  C   UNL     1      31.387   9.031 -11.822  1.00  0.00     0.157 C 
HETATM    9  C   UNL     1      30.811   6.122  -7.584  1.00  0.00    -0.061 A 
HETATM   10  C   UNL     1      30.850   7.521  -7.766  1.00  0.00     0.009 A 
HETATM   11  C   UNL     1      30.597   5.558  -6.212  1.00  0.00     0.048 C 
ENDROOT
BRANCH   4  12
HETATM   12  C   UNL     1      31.839   6.518 -13.751  1.00  0.00    -0.002 A 
HETATM   13  C   UNL     1      30.999   7.121 -14.704  1.00  0.00     0.016 A 
HETATM   14  C   UNL     1      31.324   7.108 -16.064  1.00  0.00     0.030 A 
HETATM   15  C   UNL     1      32.509   6.499 -16.528  1.00  0.00     0.029 A 
HETATM   16  C   UNL     1      33.360   5.915 -15.566  1.00  0.00     0.030 A 
HETATM   17  C   UNL     1      33.034   5.934 -14.207  1.00  0.00     0.016 A 
BRANCH  15  18
HETATM   18  N   UNL     1      32.845   6.485 -17.932  1.00  0.00    -0.390 N 
HETATM   19  C   UNL     1      32.516   5.333 -18.762  1.00  0.00     0.149 C 
HETATM   20  C   UNL     1      33.521   7.620 -18.546  1.00  0.00     0.149 C 
ENDBRANCH  15  18
ENDBRANCH   4  12
TORSDOF 2
ENDMDL
MODEL 14
REMARK VINA RESULT:      -7.2     25.922     27.283
REMARK  2 active torsions:
REMARK  status: ('A' for Active; 'I' for Inactive)
REMARK    1  A    between atoms: N_3  and  C_15 
REMARK    2  A    between atoms: C_5  and  C_7 
ROOT
HETATM    1  S   UNL     1      33.459   6.584 -11.719  1.00  0.00    -0.069 SA
HETATM    2  N   UNL     1      31.155   5.534 -11.635  1.00  0.00    -0.344 N 
HETATM    3  C   UNL     1      31.593   5.672 -10.342  1.00  0.00     0.052 A 
HETATM    4  C   UNL     1      32.076   6.025 -12.533  1.00  0.00     0.087 A 
HETATM    5  C   UNL     1      32.851   6.237 -10.206  1.00  0.00     0.034 A 
HETATM    6  C   UNL     1      30.890   5.281  -9.189  1.00  0.00     0.031 A 
HETATM    7  C   UNL     1      33.455   6.443  -8.969  1.00  0.00     0.028 A 
HETATM    8  C   UNL     1      29.880   4.869 -11.941  1.00  0.00     0.157 C 
HETATM    9  C   UNL     1      32.755   6.060  -7.810  1.00  0.00    -0.061 A 
HETATM   10  C   UNL     1      31.474   5.479  -7.928  1.00  0.00     0.009 A 
HETATM   11  C   UNL     1      33.356   6.260  -6.451  1.00  0.00     0.048 C 
ENDROOT
BRANCH   4  12
HETATM   12  C   UNL     1      31.958   6.131 -14.023  1.00  0.00    -0.002 A 
HETATM   13  C   UNL     1      31.136   7.077 -14.661  1.00  0.00     0.016 A 
HETATM   14  C   UNL     1      31.073   7.156 -16.055  1.00  0.00     0.030 A 
HETATM   15  C   UNL     1      31.839   6.297 -16.872  1.00  0.00     0.029 A 
HETATM   16  C   UNL     1      32.680   5.365 -16.228  1.00  0.00     0.030 A 
HETATM   17  C   UNL     1      32.743   5.292 -14.834  1.00  0.00     0.016 A 
BRANCH  15  18
HETATM   18  N   UNL     1      31.774   6.377 -18.313  1.00  0.00    -0.390 N 
HETATM   19  C   UNL     1      32.438   5.380 -19.141  1.00  0.00     0.149 C 
HETATM   20  C   UNL     1      31.044   7.456 -18.964  1.00  0.00     0.149 C 
ENDBRANCH  15  18
ENDBRANCH   4  12
TORSDOF 2
ENDMDL
MODEL 15
REMARK VINA RESULT:      -7.2     26.019     28.381
REMARK  2 active torsions:
REMARK  status: ('A' for Active; 'I' for Inactive)
REMARK    1  A    between atoms: N_3  and  C_15 
REMARK    2  A    between atoms: C_5  and  C_7 
ROOT
HETATM    1  S   UNL     1      33.231   7.188 -16.886  1.00  0.00    -0.069 SA
HETATM    2  N   UNL     1      31.164   5.726 -16.996  1.00  0.00    -0.344 N 
HETATM    3  C   UNL     1      31.598   5.924 -18.283  1.00  0.00     0.052 A 
HETATM    4  C   UNL     1      31.989   6.346 -16.086  1.00  0.00     0.087 A 
HETATM    5  C   UNL     1      32.732   6.712 -18.404  1.00  0.00     0.034 A 
HETATM    6  C   UNL     1      30.988   5.419 -19.444  1.00  0.00     0.031 A 
HETATM    7  C   UNL     1      33.305   7.024 -19.634  1.00  0.00     0.028 A 
HETATM    8  C   UNL     1      29.924   4.988 -16.716  1.00  0.00     0.157 C 
HETATM    9  C   UNL     1      32.704   6.517 -20.801  1.00  0.00    -0.061 A 
HETATM   10  C   UNL     1      31.546   5.717 -20.698  1.00  0.00     0.009 A 
HETATM   11  C   UNL     1      33.280   6.820 -22.151  1.00  0.00     0.048 C 
ENDROOT
BRANCH   4  12
HETATM   12  C   UNL     1      31.913   6.317 -14.590  1.00  0.00    -0.002 A 
HETATM   13  C   UNL     1      32.627   5.394 -13.805  1.00  0.00     0.016 A 
HETATM   14  C   UNL     1      32.544   5.417 -12.409  1.00  0.00     0.030 A 
HETATM   15  C   UNL     1      31.750   6.370 -11.738  1.00  0.00     0.029 A 
HETATM   16  C   UNL     1      31.053   7.309 -12.529  1.00  0.00     0.030 A 
HETATM   17  C   UNL     1      31.142   7.286 -13.923  1.00  0.00     0.016 A 
BRANCH  15  18
HETATM   18  N   UNL     1      31.662   6.394 -10.297  1.00  0.00    -0.390 N 
HETATM   19  C   UNL     1      32.272   5.338  -9.500  1.00  0.00     0.149 C 
HETATM   20  C   UNL     1      30.962   7.472  -9.613  1.00  0.00     0.149 C 
ENDBRANCH  15  18
ENDBRANCH   4  12
TORSDOF 2
ENDMDL
MODEL 16
REMARK VINA RESULT:      -7.1     26.042     26.488
REMARK  2 active torsions:
REMARK  status: ('A' for Active; 'I' for Inactive)
REMARK    1  A    between atoms: N_3  and  C_15 
REMARK    2  A    between atoms: C_5  and  C_7 
ROOT
HETATM    1  S   UNL     1      30.710   8.064 -11.177  1.00  0.00    -0.069 SA
HETATM    2  N   UNL     1      31.830   5.791 -11.177  1.00  0.00    -0.344 N 
HETATM    3  C   UNL     1      31.654   6.164  -9.868  1.00  0.00     0.052 A 
HETATM    4  C   UNL     1      31.327   6.737 -12.041  1.00  0.00     0.087 A 
HETATM    5  C   UNL     1      31.047   7.397  -9.686  1.00  0.00     0.034 A 
HETATM    6  C   UNL     1      32.044   5.420  -8.741  1.00  0.00     0.031 A 
HETATM    7  C   UNL     1      30.798   7.936  -8.428  1.00  0.00     0.028 A 
HETATM    8  C   UNL     1      32.539   4.552 -11.527  1.00  0.00     0.157 C 
HETATM    9  C   UNL     1      31.180   7.195  -7.294  1.00  0.00    -0.061 A 
HETATM   10  C   UNL     1      31.803   5.939  -7.459  1.00  0.00     0.009 A 
HETATM   11  C   UNL     1      30.936   7.727  -5.914  1.00  0.00     0.048 C 
ENDROOT
BRANCH   4  12
HETATM   12  C   UNL     1      31.254   6.686 -13.537  1.00  0.00    -0.002 A 
HETATM   13  C   UNL     1      30.963   5.508 -14.249  1.00  0.00     0.016 A 
HETATM   14  C   UNL     1      30.882   5.510 -15.645  1.00  0.00     0.030 A 
HETATM   15  C   UNL     1      31.080   6.693 -16.388  1.00  0.00     0.029 A 
HETATM   16  C   UNL     1      31.349   7.876 -15.669  1.00  0.00     0.030 A 
HETATM   17  C   UNL     1      31.424   7.872 -14.274  1.00  0.00     0.016 A 
BRANCH  15  18
HETATM   18  N   UNL     1      30.998   6.695 -17.830  1.00  0.00    -0.390 N 
HETATM   19  C   UNL     1      30.839   7.945 -18.562  1.00  0.00     0.149 C 
HETATM   20  C   UNL     1      31.070   5.449 -18.580  1.00  0.00     0.149 C 
ENDBRANCH  15  18
ENDBRANCH   4  12
TORSDOF 2
ENDMDL
MODEL 17
REMARK VINA RESULT:      -7.1     26.117     27.308
REMARK  2 active torsions:
REMARK  status: ('A' for Active; 'I' for Inactive)
REMARK    1  A    between atoms: N_3  and  C_15 
REMARK    2  A    between atoms: C_5  and  C_7 
ROOT
HETATM    1  S   UNL     1      31.576   5.229 -17.613  1.00  0.00    -0.069 SA
HETATM    2  N   UNL     1      30.974   7.644 -18.086  1.00  0.00    -0.344 N 
HETATM    3  C   UNL     1      30.970   7.477 -16.724  1.00  0.00     0.052 A 
HETATM    4  C   UNL     1      31.324   6.481 -18.734  1.00  0.00     0.087 A 
HETATM    5  C   UNL     1      31.282   6.199 -16.289  1.00  0.00     0.034 A 
HETATM    6  C   UNL     1      30.666   8.468 -15.774  1.00  0.00     0.031 A 
HETATM    7  C   UNL     1      31.316   5.848 -14.942  1.00  0.00     0.028 A 
HETATM    8  C   UNL     1      30.575   8.919 -18.698  1.00  0.00     0.157 C 
HETATM    9  C   UNL     1      31.020   6.836 -13.985  1.00  0.00    -0.061 A 
HETATM   10  C   UNL     1      30.695   8.143 -14.409  1.00  0.00     0.009 A 
HETATM   11  C   UNL     1      31.043   6.515 -12.521  1.00  0.00     0.048 C 
ENDROOT
BRANCH   4  12
HETATM   12  C   UNL     1      31.516   6.256 -20.203  1.00  0.00    -0.002 A 
HETATM   13  C   UNL     1      32.691   6.618 -20.885  1.00  0.00     0.016 A 
HETATM   14  C   UNL     1      32.837   6.369 -22.253  1.00  0.00     0.030 A 
HETATM   15  C   UNL     1      31.817   5.738 -22.996  1.00  0.00     0.029 A 
HETATM   16  C   UNL     1      30.649   5.356 -22.303  1.00  0.00     0.030 A 
HETATM   17  C   UNL     1      30.508   5.603 -20.935  1.00  0.00     0.016 A 
BRANCH  15  18
HETATM   18  N   UNL     1      31.967   5.481 -24.409  1.00  0.00    -0.390 N 
HETATM   19  C   UNL     1      30.797   5.297 -25.258  1.00  0.00     0.149 C 
HETATM   20  C   UNL     1      33.290   5.400 -25.013  1.00  0.00     0.149 C 
ENDBRANCH  15  18
ENDBRANCH   4  12
TORSDOF 2
ENDMDL
MODEL 18
REMARK VINA RESULT:      -7.1     25.916     28.290
REMARK  2 active torsions:
REMARK  status: ('A' for Active; 'I' for Inactive)
REMARK    1  A    between atoms: N_3  and  C_15 
REMARK    2  A    between atoms: C_5  and  C_7 
ROOT
HETATM    1  S   UNL     1      33.192   7.133 -12.244  1.00  0.00    -0.069 SA
HETATM    2  N   UNL     1      31.120   5.676 -12.323  1.00  0.00    -0.344 N 
HETATM    3  C   UNL     1      31.539   5.868 -13.615  1.00  0.00     0.052 A 
HETATM    4  C   UNL     1      31.958   6.299 -11.425  1.00  0.00     0.087 A 
HETATM    5  C   UNL     1      32.674   6.652 -13.754  1.00  0.00     0.034 A 
HETATM    6  C   UNL     1      30.914   5.360 -14.767  1.00  0.00     0.031 A 
HETATM    7  C   UNL     1      33.233   6.957 -14.991  1.00  0.00     0.028 A 
HETATM    8  C   UNL     1      29.882   4.943 -12.025  1.00  0.00     0.157 C 
HETATM    9  C   UNL     1      32.617   6.446 -16.149  1.00  0.00    -0.061 A 
HETATM   10  C   UNL     1      31.458   5.650 -16.029  1.00  0.00     0.009 A 
HETATM   11  C   UNL     1      33.177   6.742 -17.508  1.00  0.00     0.048 C 
ENDROOT
BRANCH   4  12
HETATM   12  C   UNL     1      31.900   6.276  -9.928  1.00  0.00    -0.002 A 
HETATM   13  C   UNL     1      32.600   5.338  -9.149  1.00  0.00     0.016 A 
HETATM   14  C   UNL     1      32.535   5.367  -7.752  1.00  0.00     0.030 A 
HETATM   15  C   UNL     1      31.773   6.342  -7.075  1.00  0.00     0.029 A 
HETATM   16  C   UNL     1      31.091   7.295  -7.860  1.00  0.00     0.030 A 
HETATM   17  C   UNL     1      31.162   7.266  -9.255  1.00  0.00     0.016 A 
BRANCH  15  18
HETATM   18  N   UNL     1      31.705   6.373  -5.633  1.00  0.00    -0.390 N 
HETATM   19  C   UNL     1      30.932   7.401  -4.949  1.00  0.00     0.149 C 
HETATM   20  C   UNL     1      32.407   5.377  -4.835  1.00  0.00     0.149 C 
ENDBRANCH  15  18
ENDBRANCH   4  12
TORSDOF 2
ENDMDL
MODEL 19
REMARK VINA RESULT:      -7.0     26.648     29.209
REMARK  2 active torsions:
REMARK  status: ('A' for Active; 'I' for Inactive)
REMARK    1  A    between atoms: N_3  and  C_15 
REMARK    2  A    between atoms: C_5  and  C_7 
ROOT
HETATM    1  S   UNL     1      32.129   5.353 -19.308  1.00  0.00    -0.069 SA
HETATM    2  N   UNL     1      33.395   7.413 -18.549  1.00  0.00    -0.344 N 
HETATM    3  C   UNL     1      33.429   7.389 -19.920  1.00  0.00     0.052 A 
HETATM    4  C   UNL     1      32.677   6.351 -18.046  1.00  0.00     0.087 A 
HETATM    5  C   UNL     1      32.776   6.316 -20.505  1.00  0.00     0.034 A 
HETATM    6  C   UNL     1      34.069   8.332 -20.743  1.00  0.00     0.031 A 
HETATM    7  C   UNL     1      32.718   6.129 -21.883  1.00  0.00     0.028 A 
HETATM    8  C   UNL     1      34.120   8.439 -17.786  1.00  0.00     0.157 C 
HETATM    9  C   UNL     1      33.351   7.072 -22.714  1.00  0.00    -0.061 A 
HETATM   10  C   UNL     1      34.025   8.169 -22.137  1.00  0.00     0.009 A 
HETATM   11  C   UNL     1      33.319   6.921 -24.205  1.00  0.00     0.048 C 
ENDROOT
BRANCH   4  12
HETATM   12  C   UNL     1      32.341   6.048 -16.617  1.00  0.00    -0.002 A 
HETATM   13  C   UNL     1      31.021   5.890 -16.159  1.00  0.00     0.016 A 
HETATM   14  C   UNL     1      30.753   5.586 -14.821  1.00  0.00     0.030 A 
HETATM   15  C   UNL     1      31.795   5.418 -13.885  1.00  0.00     0.029 A 
HETATM   16  C   UNL     1      33.119   5.555 -14.354  1.00  0.00     0.030 A 
HETATM   17  C   UNL     1      33.383   5.854 -15.693  1.00  0.00     0.016 A 
BRANCH  15  18
HETATM   18  N   UNL     1      31.520   5.104 -12.503  1.00  0.00    -0.390 N 
HETATM   19  C   UNL     1      30.158   5.158 -11.987  1.00  0.00     0.149 C 
HETATM   20  C   UNL     1      32.597   4.730 -11.597  1.00  0.00     0.149 C 
ENDBRANCH  15  18
ENDBRANCH   4  12
TORSDOF 2
ENDMDL
MODEL 20
REMARK VINA RESULT:      -6.9     26.192     27.641
REMARK  2 active torsions:
REMARK  status: ('A' for Active; 'I' for Inactive)
REMARK    1  A    between atoms: N_3  and  C_15 
REMARK    2  A    between atoms: C_5  and  C_7 
ROOT
HETATM    1  S   UNL     1      33.401   6.632 -16.711  1.00  0.00    -0.069 SA
HETATM    2  N   UNL     1      31.116   5.542 -16.597  1.00  0.00    -0.344 N 
HETATM    3  C   UNL     1      31.571   5.682 -15.310  1.00  0.00     0.052 A 
HETATM    4  C   UNL     1      32.015   6.053 -17.507  1.00  0.00     0.087 A 
HETATM    5  C   UNL     1      32.821   6.269 -15.191  1.00  0.00     0.034 A 
HETATM    6  C   UNL     1      30.892   5.275 -14.149  1.00  0.00     0.031 A 
HETATM    7  C   UNL     1      33.440   6.481 -13.962  1.00  0.00     0.028 A 
HETATM    8  C   UNL     1      29.849   4.857 -16.887  1.00  0.00     0.157 C 
HETATM    9  C   UNL     1      32.764   6.081 -12.794  1.00  0.00    -0.061 A 
HETATM   10  C   UNL     1      31.492   5.479 -12.896  1.00  0.00     0.009 A 
HETATM   11  C   UNL     1      33.383   6.286 -11.444  1.00  0.00     0.048 C 
ENDROOT
BRANCH   4  12
HETATM   12  C   UNL     1      31.873   6.162 -18.994  1.00  0.00    -0.002 A 
HETATM   13  C   UNL     1      31.068   7.132 -19.617  1.00  0.00     0.016 A 
HETATM   14  C   UNL     1      30.981   7.213 -21.010  1.00  0.00     0.030 A 
HETATM   15  C   UNL     1      31.706   6.332 -21.841  1.00  0.00     0.029 A 
HETATM   16  C   UNL     1      32.530   5.375 -21.212  1.00  0.00     0.030 A 
HETATM   17  C   UNL     1      32.617   5.300 -19.820  1.00  0.00     0.016 A 
BRANCH  15  18
HETATM   18  N   UNL     1      31.616   6.414 -23.280  1.00  0.00    -0.390 N 
HETATM   19  C   UNL     1      31.000   7.568 -23.920  1.00  0.00     0.149 C 
HETATM   20  C   UNL     1      32.140   5.344 -24.118  1.00  0.00     0.149 C 
ENDBRANCH  15  18
ENDBRANCH   4  12
TORSDOF 2
ENDMDL
