MODEL 1
REMARK VINA RESULT:      -5.9      0.000      0.000
REMARK  15 active torsions:
REMARK  status: ('A' for Active; 'I' for Inactive)
REMARK    1  A    between atoms: O_1  and  C_18 
REMARK    2  A    between atoms: C_3  and  C_4 
REMARK    3  A    between atoms: C_3  and  C_5 
REMARK    4  A    between atoms: C_4  and  C_6 
REMARK    5  A    between atoms: C_5  and  C_7 
REMARK    6  A    between atoms: C_6  and  C_8 
REMARK    7  A    between atoms: C_7  and  C_9 
REMARK    8  A    between atoms: C_8  and  C_10 
REMARK    9  A    between atoms: C_9  and  C_11 
REMARK   10  A    between atoms: C_10  and  C_12 
REMARK   11  A    between atoms: C_11  and  C_13 
REMARK   12  A    between atoms: C_12  and  C_14 
REMARK   13  A    between atoms: C_13  and  C_15 
REMARK   14  A    between atoms: C_14  and  C_16 
REMARK   15  A    between atoms: C_16  and  C_18 
ROOT
HETATM    1  O   UNL     1       6.878  10.314  -7.618  1.00  0.00    -0.776 OA
HETATM    2  H   UNL     1       7.196  10.941  -8.283  1.00  0.00     0.167 HD
ENDROOT
BRANCH   1   3
HETATM    3  C   UNL     1       5.572   9.984  -7.529  1.00  0.00     0.139 C 
HETATM    4  O   UNL     1       5.173   9.340  -6.569  1.00  0.00    -0.650 OA
BRANCH   3   5
HETATM    5  C   UNL     1       4.632  10.420  -8.623  1.00  0.00     0.110 C 
BRANCH   5   6
HETATM    6  C   UNL     1       3.809   9.262  -9.208  1.00  0.00     0.010 C 
BRANCH   6   7
HETATM    7  C   UNL     1       3.236   9.635 -10.580  1.00  0.00     0.001 C 
BRANCH   7   8
HETATM    8  C   UNL     1       4.352   9.782 -11.621  1.00  0.00     0.000 C 
BRANCH   8   9
HETATM    9  C   UNL     1       3.819  10.410 -12.915  1.00  0.00     0.000 C 
BRANCH   9  10
HETATM   10  C   UNL     1       3.831   9.395 -14.064  1.00  0.00     0.000 C 
BRANCH  10  11
HETATM   11  C   UNL     1       4.997   9.664 -15.023  1.00  0.00     0.000 C 
BRANCH  11  12
HETATM   12  C   UNL     1       4.689   9.134 -16.428  1.00  0.00     0.000 C 
BRANCH  12  13
HETATM   13  C   UNL     1       4.715  10.266 -17.462  1.00  0.00     0.000 C 
BRANCH  13  14
HETATM   14  C   UNL     1       4.908   9.713 -18.879  1.00  0.00     0.000 C 
BRANCH  14  15
HETATM   15  C   UNL     1       3.566   9.597 -19.613  1.00  0.00     0.000 C 
BRANCH  15  16
HETATM   16  C   UNL     1       3.750   8.968 -20.999  1.00  0.00     0.000 C 
BRANCH  16  17
HETATM   17  C   UNL     1       4.578   9.881 -21.912  1.00  0.00    -0.000 C 
BRANCH  17  18
HETATM   18  C   UNL     1       3.937   9.997 -23.300  1.00  0.00    -0.005 C 
HETATM   19  C   UNL     1       4.915   9.578 -24.394  1.00  0.00     0.005 C 
ENDBRANCH  17  18
ENDBRANCH  16  17
ENDBRANCH  15  16
ENDBRANCH  14  15
ENDBRANCH  13  14
ENDBRANCH  12  13
ENDBRANCH  11  12
ENDBRANCH  10  11
ENDBRANCH   9  10
ENDBRANCH   8   9
ENDBRANCH   7   8
ENDBRANCH   6   7
ENDBRANCH   5   6
ENDBRANCH   3   5
ENDBRANCH   1   3
TORSDOF 15
ENDMDL
MODEL 2
REMARK VINA RESULT:      -5.3     44.286     45.291
REMARK  15 active torsions:
REMARK  status: ('A' for Active; 'I' for Inactive)
REMARK    1  A    between atoms: O_1  and  C_18 
REMARK    2  A    between atoms: C_3  and  C_4 
REMARK    3  A    between atoms: C_3  and  C_5 
REMARK    4  A    between atoms: C_4  and  C_6 
REMARK    5  A    between atoms: C_5  and  C_7 
REMARK    6  A    between atoms: C_6  and  C_8 
REMARK    7  A    between atoms: C_7  and  C_9 
REMARK    8  A    between atoms: C_8  and  C_10 
REMARK    9  A    between atoms: C_9  and  C_11 
REMARK   10  A    between atoms: C_10  and  C_12 
REMARK   11  A    between atoms: C_11  and  C_13 
REMARK   12  A    between atoms: C_12  and  C_14 
REMARK   13  A    between atoms: C_13  and  C_15 
REMARK   14  A    between atoms: C_14  and  C_16 
REMARK   15  A    between atoms: C_16  and  C_18 
ROOT
HETATM    1  O   UNL     1      46.321  -5.626 -14.678  1.00  0.00    -0.776 OA
HETATM    2  H   UNL     1      46.211  -5.381 -13.748  1.00  0.00     0.167 HD
ENDROOT
BRANCH   1   3
HETATM    3  C   UNL     1      47.469  -6.174 -15.130  1.00  0.00     0.139 C 
HETATM    4  O   UNL     1      48.060  -6.997 -14.445  1.00  0.00    -0.650 OA
BRANCH   3   5
HETATM    5  C   UNL     1      47.996  -5.756 -16.478  1.00  0.00     0.110 C 
BRANCH   5   6
HETATM    6  C   UNL     1      46.949  -5.033 -17.338  1.00  0.00     0.010 C 
BRANCH   6   7
HETATM    7  C   UNL     1      46.542  -5.888 -18.543  1.00  0.00     0.001 C 
BRANCH   7   8
HETATM    8  C   UNL     1      47.714  -6.752 -19.026  1.00  0.00     0.000 C 
BRANCH   8   9
HETATM    9  C   UNL     1      48.122  -6.377 -20.456  1.00  0.00     0.000 C 
BRANCH   9  10
HETATM   10  C   UNL     1      47.302  -5.188 -20.968  1.00  0.00     0.000 C 
BRANCH  10  11
HETATM   11  C   UNL     1      46.926  -5.374 -22.443  1.00  0.00     0.000 C 
BRANCH  11  12
HETATM   12  C   UNL     1      47.688  -6.551 -23.062  1.00  0.00     0.000 C 
BRANCH  12  13
HETATM   13  C   UNL     1      47.345  -6.709 -24.548  1.00  0.00     0.000 C 
BRANCH  13  14
HETATM   14  C   UNL     1      46.437  -7.923 -24.776  1.00  0.00     0.000 C 
BRANCH  14  15
HETATM   15  C   UNL     1      45.687  -7.807 -26.109  1.00  0.00     0.000 C 
BRANCH  15  16
HETATM   16  C   UNL     1      44.170  -7.797 -25.887  1.00  0.00     0.000 C 
BRANCH  16  17
HETATM   17  C   UNL     1      43.798  -6.943 -24.669  1.00  0.00    -0.000 C 
BRANCH  17  18
HETATM   18  C   UNL     1      42.321  -6.535 -24.714  1.00  0.00    -0.005 C 
HETATM   19  C   UNL     1      42.118  -5.292 -25.575  1.00  0.00     0.005 C 
ENDBRANCH  17  18
ENDBRANCH  16  17
ENDBRANCH  15  16
ENDBRANCH  14  15
ENDBRANCH  13  14
ENDBRANCH  12  13
ENDBRANCH  11  12
ENDBRANCH  10  11
ENDBRANCH   9  10
ENDBRANCH   8   9
ENDBRANCH   7   8
ENDBRANCH   6   7
ENDBRANCH   5   6
ENDBRANCH   3   5
ENDBRANCH   1   3
TORSDOF 15
ENDMDL
MODEL 3
REMARK VINA RESULT:      -5.3     44.885     45.721
REMARK  15 active torsions:
REMARK  status: ('A' for Active; 'I' for Inactive)
REMARK    1  A    between atoms: O_1  and  C_18 
REMARK    2  A    between atoms: C_3  and  C_4 
REMARK    3  A    between atoms: C_3  and  C_5 
REMARK    4  A    between atoms: C_4  and  C_6 
REMARK    5  A    between atoms: C_5  and  C_7 
REMARK    6  A    between atoms: C_6  and  C_8 
REMARK    7  A    between atoms: C_7  and  C_9 
REMARK    8  A    between atoms: C_8  and  C_10 
REMARK    9  A    between atoms: C_9  and  C_11 
REMARK   10  A    between atoms: C_10  and  C_12 
REMARK   11  A    between atoms: C_11  and  C_13 
REMARK   12  A    between atoms: C_12  and  C_14 
REMARK   13  A    between atoms: C_13  and  C_15 
REMARK   14  A    between atoms: C_14  and  C_16 
REMARK   15  A    between atoms: C_16  and  C_18 
ROOT
HETATM    1  O   UNL     1      47.874  -7.834 -12.016  1.00  0.00    -0.776 OA
HETATM    2  H   UNL     1      48.253  -7.981 -11.138  1.00  0.00     0.167 HD
ENDROOT
BRANCH   1   3
HETATM    3  C   UNL     1      47.860  -6.607 -12.580  1.00  0.00     0.139 C 
HETATM    4  O   UNL     1      48.158  -5.628 -11.911  1.00  0.00    -0.650 OA
BRANCH   3   5
HETATM    5  C   UNL     1      47.476  -6.475 -14.031  1.00  0.00     0.110 C 
BRANCH   5   6
HETATM    6  C   UNL     1      48.593  -6.909 -14.993  1.00  0.00     0.010 C 
BRANCH   6   7
HETATM    7  C   UNL     1      48.037  -7.177 -16.395  1.00  0.00     0.001 C 
BRANCH   7   8
HETATM    8  C   UNL     1      47.475  -5.894 -17.019  1.00  0.00     0.000 C 
BRANCH   8   9
HETATM    9  C   UNL     1      46.702  -6.200 -18.308  1.00  0.00     0.000 C 
BRANCH   9  10
HETATM   10  C   UNL     1      47.386  -5.565 -19.524  1.00  0.00     0.000 C 
BRANCH  10  11
HETATM   11  C   UNL     1      48.014  -6.636 -20.424  1.00  0.00     0.000 C 
BRANCH  11  12
HETATM   12  C   UNL     1      48.155  -6.130 -21.865  1.00  0.00     0.000 C 
BRANCH  12  13
HETATM   13  C   UNL     1      47.714  -7.200 -22.869  1.00  0.00     0.000 C 
BRANCH  13  14
HETATM   14  C   UNL     1      47.024  -6.565 -24.083  1.00  0.00     0.000 C 
BRANCH  14  15
HETATM   15  C   UNL     1      45.831  -5.703 -23.649  1.00  0.00     0.000 C 
BRANCH  15  16
HETATM   16  C   UNL     1      44.605  -5.981 -24.526  1.00  0.00     0.000 C 
BRANCH  16  17
HETATM   17  C   UNL     1      44.348  -7.487 -24.651  1.00  0.00    -0.000 C 
BRANCH  17  18
HETATM   18  C   UNL     1      43.924  -7.856 -26.078  1.00  0.00    -0.005 C 
HETATM   19  C   UNL     1      44.971  -7.413 -27.096  1.00  0.00     0.005 C 
ENDBRANCH  17  18
ENDBRANCH  16  17
ENDBRANCH  15  16
ENDBRANCH  14  15
ENDBRANCH  13  14
ENDBRANCH  12  13
ENDBRANCH  11  12
ENDBRANCH  10  11
ENDBRANCH   9  10
ENDBRANCH   8   9
ENDBRANCH   7   8
ENDBRANCH   6   7
ENDBRANCH   5   6
ENDBRANCH   3   5
ENDBRANCH   1   3
TORSDOF 15
ENDMDL
MODEL 4
REMARK VINA RESULT:      -5.2     26.680     27.554
REMARK  15 active torsions:
REMARK  status: ('A' for Active; 'I' for Inactive)
REMARK    1  A    between atoms: O_1  and  C_18 
REMARK    2  A    between atoms: C_3  and  C_4 
REMARK    3  A    between atoms: C_3  and  C_5 
REMARK    4  A    between atoms: C_4  and  C_6 
REMARK    5  A    between atoms: C_5  and  C_7 
REMARK    6  A    between atoms: C_6  and  C_8 
REMARK    7  A    between atoms: C_7  and  C_9 
REMARK    8  A    between atoms: C_8  and  C_10 
REMARK    9  A    between atoms: C_9  and  C_11 
REMARK   10  A    between atoms: C_10  and  C_12 
REMARK   11  A    between atoms: C_11  and  C_13 
REMARK   12  A    between atoms: C_12  and  C_14 
REMARK   13  A    between atoms: C_13  and  C_15 
REMARK   14  A    between atoms: C_14  and  C_16 
REMARK   15  A    between atoms: C_16  and  C_18 
ROOT
HETATM    1  O   UNL     1      29.018  10.450 -16.276  1.00  0.00    -0.776 OA
HETATM    2  H   UNL     1      28.224  10.593 -16.810  1.00  0.00     0.167 HD
ENDROOT
BRANCH   1   3
HETATM    3  C   UNL     1      28.937  10.123 -14.968  1.00  0.00     0.139 C 
HETATM    4  O   UNL     1      27.984  10.505 -14.305  1.00  0.00    -0.650 OA
BRANCH   3   5
HETATM    5  C   UNL     1      30.032   9.289 -14.356  1.00  0.00     0.110 C 
BRANCH   5   6
HETATM    6  C   UNL     1      31.409   9.969 -14.405  1.00  0.00     0.010 C 
BRANCH   6   7
HETATM    7  C   UNL     1      32.419   9.228 -13.522  1.00  0.00     0.001 C 
BRANCH   7   8
HETATM    8  C   UNL     1      33.703   8.914 -14.301  1.00  0.00     0.000 C 
BRANCH   8   9
HETATM    9  C   UNL     1      33.992   7.408 -14.300  1.00  0.00     0.000 C 
BRANCH   9  10
HETATM   10  C   UNL     1      33.070   6.671 -13.322  1.00  0.00     0.000 C 
BRANCH  10  11
HETATM   11  C   UNL     1      32.524   5.381 -13.946  1.00  0.00     0.000 C 
BRANCH  11  12
HETATM   12  C   UNL     1      31.110   5.593 -14.500  1.00  0.00     0.000 C 
BRANCH  12  13
HETATM   13  C   UNL     1      31.074   5.372 -16.016  1.00  0.00     0.000 C 
BRANCH  13  14
HETATM   14  C   UNL     1      30.529   6.610 -16.740  1.00  0.00     0.000 C 
BRANCH  14  15
HETATM   15  C   UNL     1      31.671   7.490 -17.261  1.00  0.00     0.000 C 
BRANCH  15  16
HETATM   16  C   UNL     1      32.887   6.641 -17.649  1.00  0.00     0.000 C 
BRANCH  16  17
HETATM   17  C   UNL     1      33.015   6.526 -19.172  1.00  0.00    -0.000 C 
BRANCH  17  18
HETATM   18  C   UNL     1      32.361   5.238 -19.684  1.00  0.00    -0.005 C 
HETATM   19  C   UNL     1      31.055   5.536 -20.415  1.00  0.00     0.005 C 
ENDBRANCH  17  18
ENDBRANCH  16  17
ENDBRANCH  15  16
ENDBRANCH  14  15
ENDBRANCH  13  14
ENDBRANCH  12  13
ENDBRANCH  11  12
ENDBRANCH  10  11
ENDBRANCH   9  10
ENDBRANCH   8   9
ENDBRANCH   7   8
ENDBRANCH   6   7
ENDBRANCH   5   6
ENDBRANCH   3   5
ENDBRANCH   1   3
TORSDOF 15
ENDMDL
MODEL 5
REMARK VINA RESULT:      -5.2     26.862     27.715
REMARK  15 active torsions:
REMARK  status: ('A' for Active; 'I' for Inactive)
REMARK    1  A    between atoms: O_1  and  C_18 
REMARK    2  A    between atoms: C_3  and  C_4 
REMARK    3  A    between atoms: C_3  and  C_5 
REMARK    4  A    between atoms: C_4  and  C_6 
REMARK    5  A    between atoms: C_5  and  C_7 
REMARK    6  A    between atoms: C_6  and  C_8 
REMARK    7  A    between atoms: C_7  and  C_9 
REMARK    8  A    between atoms: C_8  and  C_10 
REMARK    9  A    between atoms: C_9  and  C_11 
REMARK   10  A    between atoms: C_10  and  C_12 
REMARK   11  A    between atoms: C_11  and  C_13 
REMARK   12  A    between atoms: C_12  and  C_14 
REMARK   13  A    between atoms: C_13  and  C_15 
REMARK   14  A    between atoms: C_14  and  C_16 
REMARK   15  A    between atoms: C_16  and  C_18 
ROOT
HETATM    1  O   UNL     1      29.476   4.247 -12.150  1.00  0.00    -0.776 OA
HETATM    2  H   UNL     1      28.885   4.012 -11.422  1.00  0.00     0.167 HD
ENDROOT
BRANCH   1   3
HETATM    3  C   UNL     1      30.485   5.129 -11.982  1.00  0.00     0.139 C 
HETATM    4  O   UNL     1      31.183   5.068 -10.980  1.00  0.00    -0.650 OA
BRANCH   3   5
HETATM    5  C   UNL     1      30.727   6.173 -13.041  1.00  0.00     0.110 C 
BRANCH   5   6
HETATM    6  C   UNL     1      30.942   7.580 -12.463  1.00  0.00     0.010 C 
BRANCH   6   7
HETATM    7  C   UNL     1      31.160   8.606 -13.580  1.00  0.00     0.001 C 
BRANCH   7   8
HETATM    8  C   UNL     1      30.491   8.150 -14.883  1.00  0.00     0.000 C 
BRANCH   8   9
HETATM    9  C   UNL     1      30.899   9.051 -16.056  1.00  0.00     0.000 C 
BRANCH   9  10
HETATM   10  C   UNL     1      32.419   9.242 -16.098  1.00  0.00     0.000 C 
BRANCH  10  11
HETATM   11  C   UNL     1      33.019   8.603 -17.357  1.00  0.00     0.000 C 
BRANCH  11  12
HETATM   12  C   UNL     1      34.170   7.656 -16.999  1.00  0.00     0.000 C 
BRANCH  12  13
HETATM   13  C   UNL     1      34.146   7.299 -15.508  1.00  0.00     0.000 C 
BRANCH  13  14
HETATM   14  C   UNL     1      33.687   5.851 -15.296  1.00  0.00     0.000 C 
BRANCH  14  15
HETATM   15  C   UNL     1      33.100   5.266 -16.586  1.00  0.00     0.000 C 
BRANCH  15  16
HETATM   16  C   UNL     1      31.611   4.942 -16.415  1.00  0.00     0.000 C 
BRANCH  16  17
HETATM   17  C   UNL     1      30.805   5.400 -17.636  1.00  0.00    -0.000 C 
BRANCH  17  18
HETATM   18  C   UNL     1      31.697   5.498 -18.879  1.00  0.00    -0.005 C 
HETATM   19  C   UNL     1      30.880   5.335 -20.158  1.00  0.00     0.005 C 
ENDBRANCH  17  18
ENDBRANCH  16  17
ENDBRANCH  15  16
ENDBRANCH  14  15
ENDBRANCH  13  14
ENDBRANCH  12  13
ENDBRANCH  11  12
ENDBRANCH  10  11
ENDBRANCH   9  10
ENDBRANCH   8   9
ENDBRANCH   7   8
ENDBRANCH   6   7
ENDBRANCH   5   6
ENDBRANCH   3   5
ENDBRANCH   1   3
TORSDOF 15
ENDMDL
MODEL 6
REMARK VINA RESULT:      -5.1     26.344     27.123
REMARK  15 active torsions:
REMARK  status: ('A' for Active; 'I' for Inactive)
REMARK    1  A    between atoms: O_1  and  C_18 
REMARK    2  A    between atoms: C_3  and  C_4 
REMARK    3  A    between atoms: C_3  and  C_5 
REMARK    4  A    between atoms: C_4  and  C_6 
REMARK    5  A    between atoms: C_5  and  C_7 
REMARK    6  A    between atoms: C_6  and  C_8 
REMARK    7  A    between atoms: C_7  and  C_9 
REMARK    8  A    between atoms: C_8  and  C_10 
REMARK    9  A    between atoms: C_9  and  C_11 
REMARK   10  A    between atoms: C_10  and  C_12 
REMARK   11  A    between atoms: C_11  and  C_13 
REMARK   12  A    between atoms: C_12  and  C_14 
REMARK   13  A    between atoms: C_13  and  C_15 
REMARK   14  A    between atoms: C_14  and  C_16 
REMARK   15  A    between atoms: C_16  and  C_18 
ROOT
HETATM    1  O   UNL     1      27.944  11.041 -14.670  1.00  0.00    -0.776 OA
HETATM    2  H   UNL     1      28.120  11.719 -15.337  1.00  0.00     0.167 HD
ENDROOT
BRANCH   1   3
HETATM    3  C   UNL     1      28.947  10.411 -14.023  1.00  0.00     0.139 C 
HETATM    4  O   UNL     1      29.093  10.576 -12.820  1.00  0.00    -0.650 OA
BRANCH   3   5
HETATM    5  C   UNL     1      29.870   9.513 -14.805  1.00  0.00     0.110 C 
BRANCH   5   6
HETATM    6  C   UNL     1      31.114   9.086 -14.010  1.00  0.00     0.010 C 
BRANCH   6   7
HETATM    7  C   UNL     1      30.931   7.687 -13.412  1.00  0.00     0.001 C 
BRANCH   7   8
HETATM    8  C   UNL     1      31.959   6.704 -13.987  1.00  0.00     0.000 C 
BRANCH   8   9
HETATM    9  C   UNL     1      31.285   5.401 -14.434  1.00  0.00     0.000 C 
BRANCH   9  10
HETATM   10  C   UNL     1      31.381   5.226 -15.953  1.00  0.00     0.000 C 
BRANCH  10  11
HETATM   11  C   UNL     1      30.343   6.095 -16.674  1.00  0.00     0.000 C 
BRANCH  11  12
HETATM   12  C   UNL     1      30.947   6.758 -17.918  1.00  0.00     0.000 C 
BRANCH  12  13
HETATM   13  C   UNL     1      32.190   7.578 -17.556  1.00  0.00     0.000 C 
BRANCH  13  14
HETATM   14  C   UNL     1      33.311   7.358 -18.579  1.00  0.00     0.000 C 
BRANCH  14  15
HETATM   15  C   UNL     1      33.291   5.923 -19.118  1.00  0.00     0.000 C 
BRANCH  15  16
HETATM   16  C   UNL     1      33.404   5.908 -20.646  1.00  0.00     0.000 C 
BRANCH  16  17
HETATM   17  C   UNL     1      32.640   4.720 -21.243  1.00  0.00    -0.000 C 
BRANCH  17  18
HETATM   18  C   UNL     1      31.576   5.194 -22.239  1.00  0.00    -0.005 C 
HETATM   19  C   UNL     1      30.202   5.278 -21.579  1.00  0.00     0.005 C 
ENDBRANCH  17  18
ENDBRANCH  16  17
ENDBRANCH  15  16
ENDBRANCH  14  15
ENDBRANCH  13  14
ENDBRANCH  12  13
ENDBRANCH  11  12
ENDBRANCH  10  11
ENDBRANCH   9  10
ENDBRANCH   8   9
ENDBRANCH   7   8
ENDBRANCH   6   7
ENDBRANCH   5   6
ENDBRANCH   3   5
ENDBRANCH   1   3
TORSDOF 15
ENDMDL
MODEL 7
REMARK VINA RESULT:      -5.0     45.381     46.353
REMARK  15 active torsions:
REMARK  status: ('A' for Active; 'I' for Inactive)
REMARK    1  A    between atoms: O_1  and  C_18 
REMARK    2  A    between atoms: C_3  and  C_4 
REMARK    3  A    between atoms: C_3  and  C_5 
REMARK    4  A    between atoms: C_4  and  C_6 
REMARK    5  A    between atoms: C_5  and  C_7 
REMARK    6  A    between atoms: C_6  and  C_8 
REMARK    7  A    between atoms: C_7  and  C_9 
REMARK    8  A    between atoms: C_8  and  C_10 
REMARK    9  A    between atoms: C_9  and  C_11 
REMARK   10  A    between atoms: C_10  and  C_12 
REMARK   11  A    between atoms: C_11  and  C_13 
REMARK   12  A    between atoms: C_12  and  C_14 
REMARK   13  A    between atoms: C_13  and  C_15 
REMARK   14  A    between atoms: C_14  and  C_16 
REMARK   15  A    between atoms: C_16  and  C_18 
ROOT
HETATM    1  O   UNL     1      46.631  -5.517 -14.298  1.00  0.00    -0.776 OA
HETATM    2  H   UNL     1      46.406  -5.234 -13.400  1.00  0.00     0.167 HD
ENDROOT
BRANCH   1   3
HETATM    3  C   UNL     1      47.583  -6.447 -14.525  1.00  0.00     0.139 C 
HETATM    4  O   UNL     1      48.163  -6.966 -13.582  1.00  0.00    -0.650 OA
BRANCH   3   5
HETATM    5  C   UNL     1      47.910  -6.825 -15.946  1.00  0.00     0.110 C 
BRANCH   5   6
HETATM    6  C   UNL     1      48.208  -5.612 -16.840  1.00  0.00     0.010 C 
BRANCH   6   7
HETATM    7  C   UNL     1      46.922  -5.063 -17.469  1.00  0.00     0.001 C 
BRANCH   7   8
HETATM    8  C   UNL     1      46.462  -5.944 -18.638  1.00  0.00     0.000 C 
BRANCH   8   9
HETATM    9  C   UNL     1      47.614  -6.207 -19.615  1.00  0.00     0.000 C 
BRANCH   9  10
HETATM   10  C   UNL     1      47.535  -5.267 -20.823  1.00  0.00     0.000 C 
BRANCH  10  11
HETATM   11  C   UNL     1      47.335  -6.056 -22.123  1.00  0.00     0.000 C 
BRANCH  11  12
HETATM   12  C   UNL     1      46.464  -5.275 -23.113  1.00  0.00     0.000 C 
BRANCH  12  13
HETATM   13  C   UNL     1      46.242  -6.076 -24.401  1.00  0.00     0.000 C 
BRANCH  13  14
HETATM   14  C   UNL     1      47.157  -5.575 -25.525  1.00  0.00     0.000 C 
BRANCH  14  15
HETATM   15  C   UNL     1      48.038  -6.709 -26.064  1.00  0.00     0.000 C 
BRANCH  15  16
HETATM   16  C   UNL     1      47.357  -8.070 -25.877  1.00  0.00     0.000 C 
BRANCH  16  17
HETATM   17  C   UNL     1      48.378  -9.147 -25.491  1.00  0.00    -0.000 C 
BRANCH  17  18
HETATM   18  C   UNL     1      48.083  -9.708 -24.095  1.00  0.00    -0.005 C 
HETATM   19  C   UNL     1      46.622  -9.489 -23.710  1.00  0.00     0.005 C 
ENDBRANCH  17  18
ENDBRANCH  16  17
ENDBRANCH  15  16
ENDBRANCH  14  15
ENDBRANCH  13  14
ENDBRANCH  12  13
ENDBRANCH  11  12
ENDBRANCH  10  11
ENDBRANCH   9  10
ENDBRANCH   8   9
ENDBRANCH   7   8
ENDBRANCH   6   7
ENDBRANCH   5   6
ENDBRANCH   3   5
ENDBRANCH   1   3
TORSDOF 15
ENDMDL
MODEL 8
REMARK VINA RESULT:      -4.9     26.231     27.912
REMARK  15 active torsions:
REMARK  status: ('A' for Active; 'I' for Inactive)
REMARK    1  A    between atoms: O_1  and  C_18 
REMARK    2  A    between atoms: C_3  and  C_4 
REMARK    3  A    between atoms: C_3  and  C_5 
REMARK    4  A    between atoms: C_4  and  C_6 
REMARK    5  A    between atoms: C_5  and  C_7 
REMARK    6  A    between atoms: C_6  and  C_8 
REMARK    7  A    between atoms: C_7  and  C_9 
REMARK    8  A    between atoms: C_8  and  C_10 
REMARK    9  A    between atoms: C_9  and  C_11 
REMARK   10  A    between atoms: C_10  and  C_12 
REMARK   11  A    between atoms: C_11  and  C_13 
REMARK   12  A    between atoms: C_12  and  C_14 
REMARK   13  A    between atoms: C_13  and  C_15 
REMARK   14  A    between atoms: C_14  and  C_16 
REMARK   15  A    between atoms: C_16  and  C_18 
ROOT
HETATM    1  O   UNL     1      28.572  12.415 -13.150  1.00  0.00    -0.776 OA
HETATM    2  H   UNL     1      28.465  12.552 -12.198  1.00  0.00     0.167 HD
ENDROOT
BRANCH   1   3
HETATM    3  C   UNL     1      28.804  11.188 -13.663  1.00  0.00     0.139 C 
HETATM    4  O   UNL     1      28.035  10.722 -14.491  1.00  0.00    -0.650 OA
BRANCH   3   5
HETATM    5  C   UNL     1      30.014  10.420 -13.200  1.00  0.00     0.110 C 
BRANCH   5   6
HETATM    6  C   UNL     1      30.850   9.855 -14.359  1.00  0.00     0.010 C 
BRANCH   6   7
HETATM    7  C   UNL     1      30.530   8.375 -14.597  1.00  0.00     0.001 C 
BRANCH   7   8
HETATM    8  C   UNL     1      31.547   7.739 -15.553  1.00  0.00     0.000 C 
BRANCH   8   9
HETATM    9  C   UNL     1      32.965   7.804 -14.971  1.00  0.00     0.000 C 
BRANCH   9  10
HETATM   10  C   UNL     1      33.561   6.400 -14.818  1.00  0.00     0.000 C 
BRANCH  10  11
HETATM   11  C   UNL     1      32.466   5.367 -14.520  1.00  0.00     0.000 C 
BRANCH  11  12
HETATM   12  C   UNL     1      32.258   5.205 -13.009  1.00  0.00     0.000 C 
BRANCH  12  13
HETATM   13  C   UNL     1      30.767   5.208 -12.656  1.00  0.00     0.000 C 
BRANCH  13  14
HETATM   14  C   UNL     1      30.541   5.723 -11.229  1.00  0.00     0.000 C 
BRANCH  14  15
HETATM   15  C   UNL     1      30.436   7.253 -11.206  1.00  0.00     0.000 C 
BRANCH  15  16
HETATM   16  C   UNL     1      31.010   7.824  -9.904  1.00  0.00     0.000 C 
BRANCH  16  17
HETATM   17  C   UNL     1      32.543   7.831  -9.935  1.00  0.00    -0.000 C 
BRANCH  17  18
HETATM   18  C   UNL     1      33.064   8.443 -11.240  1.00  0.00    -0.005 C 
HETATM   19  C   UNL     1      34.482   7.966 -11.545  1.00  0.00     0.005 C 
ENDBRANCH  17  18
ENDBRANCH  16  17
ENDBRANCH  15  16
ENDBRANCH  14  15
ENDBRANCH  13  14
ENDBRANCH  12  13
ENDBRANCH  11  12
ENDBRANCH  10  11
ENDBRANCH   9  10
ENDBRANCH   8   9
ENDBRANCH   7   8
ENDBRANCH   6   7
ENDBRANCH   5   6
ENDBRANCH   3   5
ENDBRANCH   1   3
TORSDOF 15
ENDMDL
MODEL 9
REMARK VINA RESULT:      -4.9     27.464     28.782
REMARK  15 active torsions:
REMARK  status: ('A' for Active; 'I' for Inactive)
REMARK    1  A    between atoms: O_1  and  C_18 
REMARK    2  A    between atoms: C_3  and  C_4 
REMARK    3  A    between atoms: C_3  and  C_5 
REMARK    4  A    between atoms: C_4  and  C_6 
REMARK    5  A    between atoms: C_5  and  C_7 
REMARK    6  A    between atoms: C_6  and  C_8 
REMARK    7  A    between atoms: C_7  and  C_9 
REMARK    8  A    between atoms: C_8  and  C_10 
REMARK    9  A    between atoms: C_9  and  C_11 
REMARK   10  A    between atoms: C_10  and  C_12 
REMARK   11  A    between atoms: C_11  and  C_13 
REMARK   12  A    between atoms: C_12  and  C_14 
REMARK   13  A    between atoms: C_13  and  C_15 
REMARK   14  A    between atoms: C_14  and  C_16 
REMARK   15  A    between atoms: C_16  and  C_18 
ROOT
HETATM    1  O   UNL     1      32.755   5.077  -4.614  1.00  0.00    -0.776 OA
HETATM    2  H   UNL     1      32.281   5.018  -3.773  1.00  0.00     0.167 HD
ENDROOT
BRANCH   1   3
HETATM    3  C   UNL     1      32.133   4.850  -5.790  1.00  0.00     0.139 C 
HETATM    4  O   UNL     1      32.700   4.208  -6.663  1.00  0.00    -0.650 OA
BRANCH   3   5
HETATM    5  C   UNL     1      30.744   5.395  -5.999  1.00  0.00     0.110 C 
BRANCH   5   6
HETATM    6  C   UNL     1      30.636   6.318  -7.223  1.00  0.00     0.010 C 
BRANCH   6   7
HETATM    7  C   UNL     1      31.849   7.251  -7.316  1.00  0.00     0.001 C 
BRANCH   7   8
HETATM    8  C   UNL     1      32.061   7.736  -8.756  1.00  0.00     0.000 C 
BRANCH   8   9
HETATM    9  C   UNL     1      31.836   6.598  -9.759  1.00  0.00     0.000 C 
BRANCH   9  10
HETATM   10  C   UNL     1      33.040   5.650  -9.794  1.00  0.00     0.000 C 
BRANCH  10  11
HETATM   11  C   UNL     1      33.307   5.153 -11.220  1.00  0.00     0.000 C 
BRANCH  11  12
HETATM   12  C   UNL     1      32.001   5.018 -12.011  1.00  0.00     0.000 C 
BRANCH  12  13
HETATM   13  C   UNL     1      32.242   5.215 -13.511  1.00  0.00     0.000 C 
BRANCH  13  14
HETATM   14  C   UNL     1      31.355   6.335 -14.069  1.00  0.00     0.000 C 
BRANCH  14  15
HETATM   15  C   UNL     1      31.566   7.641 -13.295  1.00  0.00     0.000 C 
BRANCH  15  16
HETATM   16  C   UNL     1      32.646   8.505 -13.958  1.00  0.00     0.000 C 
BRANCH  16  17
HETATM   17  C   UNL     1      33.988   8.362 -13.231  1.00  0.00    -0.000 C 
BRANCH  17  18
HETATM   18  C   UNL     1      33.900   8.913 -11.803  1.00  0.00    -0.005 C 
HETATM   19  C   UNL     1      35.091   8.458 -10.963  1.00  0.00     0.005 C 
ENDBRANCH  17  18
ENDBRANCH  16  17
ENDBRANCH  15  16
ENDBRANCH  14  15
ENDBRANCH  13  14
ENDBRANCH  12  13
ENDBRANCH  11  12
ENDBRANCH  10  11
ENDBRANCH   9  10
ENDBRANCH   8   9
ENDBRANCH   7   8
ENDBRANCH   6   7
ENDBRANCH   5   6
ENDBRANCH   3   5
ENDBRANCH   1   3
TORSDOF 15
ENDMDL
MODEL 10
REMARK VINA RESULT:      -4.9     27.418     29.547
REMARK  15 active torsions:
REMARK  status: ('A' for Active; 'I' for Inactive)
REMARK    1  A    between atoms: O_1  and  C_18 
REMARK    2  A    between atoms: C_3  and  C_4 
REMARK    3  A    between atoms: C_3  and  C_5 
REMARK    4  A    between atoms: C_4  and  C_6 
REMARK    5  A    between atoms: C_5  and  C_7 
REMARK    6  A    between atoms: C_6  and  C_8 
REMARK    7  A    between atoms: C_7  and  C_9 
REMARK    8  A    between atoms: C_8  and  C_10 
REMARK    9  A    between atoms: C_9  and  C_11 
REMARK   10  A    between atoms: C_10  and  C_12 
REMARK   11  A    between atoms: C_11  and  C_13 
REMARK   12  A    between atoms: C_12  and  C_14 
REMARK   13  A    between atoms: C_13  and  C_15 
REMARK   14  A    between atoms: C_14  and  C_16 
REMARK   15  A    between atoms: C_16  and  C_18 
ROOT
HETATM    1  O   UNL     1      34.306   5.731 -20.692  1.00  0.00    -0.776 OA
HETATM    2  H   UNL     1      35.068   5.135 -20.685  1.00  0.00     0.167 HD
ENDROOT
BRANCH   1   3
HETATM    3  C   UNL     1      33.054   5.271 -20.897  1.00  0.00     0.139 C 
HETATM    4  O   UNL     1      32.886   4.145 -21.343  1.00  0.00    -0.650 OA
BRANCH   3   5
HETATM    5  C   UNL     1      31.885   6.163 -20.568  1.00  0.00     0.110 C 
BRANCH   5   6
HETATM    6  C   UNL     1      30.884   5.514 -19.599  1.00  0.00     0.010 C 
BRANCH   6   7
HETATM    7  C   UNL     1      30.945   6.179 -18.220  1.00  0.00     0.001 C 
BRANCH   7   8
HETATM    8  C   UNL     1      30.803   5.140 -17.101  1.00  0.00     0.000 C 
BRANCH   8   9
HETATM    9  C   UNL     1      32.178   4.683 -16.597  1.00  0.00     0.000 C 
BRANCH   9  10
HETATM   10  C   UNL     1      33.205   5.815 -16.699  1.00  0.00     0.000 C 
BRANCH  10  11
HETATM   11  C   UNL     1      33.825   6.122 -15.330  1.00  0.00     0.000 C 
BRANCH  11  12
HETATM   12  C   UNL     1      32.751   6.551 -14.323  1.00  0.00     0.000 C 
BRANCH  12  13
HETATM   13  C   UNL     1      32.715   5.603 -13.120  1.00  0.00     0.000 C 
BRANCH  13  14
HETATM   14  C   UNL     1      31.292   5.475 -12.563  1.00  0.00     0.000 C 
BRANCH  14  15
HETATM   15  C   UNL     1      30.806   6.808 -11.981  1.00  0.00     0.000 C 
BRANCH  15  16
HETATM   16  C   UNL     1      30.953   6.829 -10.456  1.00  0.00     0.000 C 
BRANCH  16  17
HETATM   17  C   UNL     1      31.083   5.407  -9.896  1.00  0.00    -0.000 C 
BRANCH  17  18
HETATM   18  C   UNL     1      31.626   5.428  -8.463  1.00  0.00    -0.005 C 
HETATM   19  C   UNL     1      30.708   6.222  -7.537  1.00  0.00     0.005 C 
ENDBRANCH  17  18
ENDBRANCH  16  17
ENDBRANCH  15  16
ENDBRANCH  14  15
ENDBRANCH  13  14
ENDBRANCH  12  13
ENDBRANCH  11  12
ENDBRANCH  10  11
ENDBRANCH   9  10
ENDBRANCH   8   9
ENDBRANCH   7   8
ENDBRANCH   6   7
ENDBRANCH   5   6
ENDBRANCH   3   5
ENDBRANCH   1   3
TORSDOF 15
ENDMDL
MODEL 11
REMARK VINA RESULT:      -4.8     26.641     27.466
REMARK  15 active torsions:
REMARK  status: ('A' for Active; 'I' for Inactive)
REMARK    1  A    between atoms: O_1  and  C_18 
REMARK    2  A    between atoms: C_3  and  C_4 
REMARK    3  A    between atoms: C_3  and  C_5 
REMARK    4  A    between atoms: C_4  and  C_6 
REMARK    5  A    between atoms: C_5  and  C_7 
REMARK    6  A    between atoms: C_6  and  C_8 
REMARK    7  A    between atoms: C_7  and  C_9 
REMARK    8  A    between atoms: C_8  and  C_10 
REMARK    9  A    between atoms: C_9  and  C_11 
REMARK   10  A    between atoms: C_10  and  C_12 
REMARK   11  A    between atoms: C_11  and  C_13 
REMARK   12  A    between atoms: C_12  and  C_14 
REMARK   13  A    between atoms: C_13  and  C_15 
REMARK   14  A    between atoms: C_14  and  C_16 
REMARK   15  A    between atoms: C_16  and  C_18 
ROOT
HETATM    1  O   UNL     1      28.058  11.099 -14.429  1.00  0.00    -0.776 OA
HETATM    2  H   UNL     1      27.366  10.505 -14.108  1.00  0.00     0.167 HD
ENDROOT
BRANCH   1   3
HETATM    3  C   UNL     1      28.975  11.630 -13.593  1.00  0.00     0.139 C 
HETATM    4  O   UNL     1      28.656  12.540 -12.841  1.00  0.00    -0.650 OA
BRANCH   3   5
HETATM    5  C   UNL     1      30.379  11.084 -13.607  1.00  0.00     0.110 C 
BRANCH   5   6
HETATM    6  C   UNL     1      30.430   9.555 -13.758  1.00  0.00     0.010 C 
BRANCH   6   7
HETATM    7  C   UNL     1      31.482   8.946 -12.824  1.00  0.00     0.001 C 
BRANCH   7   8
HETATM    8  C   UNL     1      31.597   7.432 -13.039  1.00  0.00     0.000 C 
BRANCH   8   9
HETATM    9  C   UNL     1      33.065   6.988 -13.056  1.00  0.00     0.000 C 
BRANCH   9  10
HETATM   10  C   UNL     1      33.833   7.674 -14.192  1.00  0.00     0.000 C 
BRANCH  10  11
HETATM   11  C   UNL     1      33.465   7.067 -15.551  1.00  0.00     0.000 C 
BRANCH  11  12
HETATM   12  C   UNL     1      33.832   5.579 -15.608  1.00  0.00     0.000 C 
BRANCH  12  13
HETATM   13  C   UNL     1      32.735   4.767 -16.305  1.00  0.00     0.000 C 
BRANCH  13  14
HETATM   14  C   UNL     1      31.344   5.320 -15.970  1.00  0.00     0.000 C 
BRANCH  14  15
HETATM   15  C   UNL     1      30.507   5.515 -17.240  1.00  0.00     0.000 C 
BRANCH  15  16
HETATM   16  C   UNL     1      30.756   6.896 -17.857  1.00  0.00     0.000 C 
BRANCH  16  17
HETATM   17  C   UNL     1      31.300   6.771 -19.285  1.00  0.00    -0.000 C 
BRANCH  17  18
HETATM   18  C   UNL     1      32.831   6.855 -19.300  1.00  0.00    -0.005 C 
HETATM   19  C   UNL     1      33.441   5.665 -20.036  1.00  0.00     0.005 C 
ENDBRANCH  17  18
ENDBRANCH  16  17
ENDBRANCH  15  16
ENDBRANCH  14  15
ENDBRANCH  13  14
ENDBRANCH  12  13
ENDBRANCH  11  12
ENDBRANCH  10  11
ENDBRANCH   9  10
ENDBRANCH   8   9
ENDBRANCH   7   8
ENDBRANCH   6   7
ENDBRANCH   5   6
ENDBRANCH   3   5
ENDBRANCH   1   3
TORSDOF 15
ENDMDL
MODEL 12
REMARK VINA RESULT:      -4.8     27.391     29.248
REMARK  15 active torsions:
REMARK  status: ('A' for Active; 'I' for Inactive)
REMARK    1  A    between atoms: O_1  and  C_18 
REMARK    2  A    between atoms: C_3  and  C_4 
REMARK    3  A    between atoms: C_3  and  C_5 
REMARK    4  A    between atoms: C_4  and  C_6 
REMARK    5  A    between atoms: C_5  and  C_7 
REMARK    6  A    between atoms: C_6  and  C_8 
REMARK    7  A    between atoms: C_7  and  C_9 
REMARK    8  A    between atoms: C_8  and  C_10 
REMARK    9  A    between atoms: C_9  and  C_11 
REMARK   10  A    between atoms: C_10  and  C_12 
REMARK   11  A    between atoms: C_11  and  C_13 
REMARK   12  A    between atoms: C_12  and  C_14 
REMARK   13  A    between atoms: C_13  and  C_15 
REMARK   14  A    between atoms: C_14  and  C_16 
REMARK   15  A    between atoms: C_16  and  C_18 
ROOT
HETATM    1  O   UNL     1      33.029   4.918 -17.052  1.00  0.00    -0.776 OA
HETATM    2  H   UNL     1      33.604   4.468 -17.685  1.00  0.00     0.167 HD
ENDROOT
BRANCH   1   3
HETATM    3  C   UNL     1      31.916   5.571 -17.451  1.00  0.00     0.139 C 
HETATM    4  O   UNL     1      31.230   5.107 -18.351  1.00  0.00    -0.650 OA
BRANCH   3   5
HETATM    5  C   UNL     1      31.544   6.863 -16.772  1.00  0.00     0.110 C 
BRANCH   5   6
HETATM    6  C   UNL     1      31.372   6.719 -15.252  1.00  0.00     0.010 C 
BRANCH   6   7
HETATM    7  C   UNL     1      31.273   8.091 -14.577  1.00  0.00     0.001 C 
BRANCH   7   8
HETATM    8  C   UNL     1      32.510   8.945 -14.882  1.00  0.00     0.000 C 
BRANCH   8   9
HETATM    9  C   UNL     1      33.787   8.267 -14.370  1.00  0.00     0.000 C 
BRANCH   9  10
HETATM   10  C   UNL     1      34.343   8.998 -13.143  1.00  0.00     0.000 C 
BRANCH  10  11
HETATM   11  C   UNL     1      33.701   8.473 -11.852  1.00  0.00     0.000 C 
BRANCH  11  12
HETATM   12  C   UNL     1      34.680   7.590 -11.070  1.00  0.00     0.000 C 
BRANCH  12  13
HETATM   13  C   UNL     1      34.093   6.193 -10.835  1.00  0.00     0.000 C 
BRANCH  13  14
HETATM   14  C   UNL     1      33.080   5.831 -11.927  1.00  0.00     0.000 C 
BRANCH  14  15
HETATM   15  C   UNL     1      32.076   4.788 -11.423  1.00  0.00     0.000 C 
BRANCH  15  16
HETATM   16  C   UNL     1      30.959   5.448 -10.607  1.00  0.00     0.000 C 
BRANCH  16  17
HETATM   17  C   UNL     1      30.430   6.703 -11.313  1.00  0.00    -0.000 C 
BRANCH  17  18
HETATM   18  C   UNL     1      30.414   7.904 -10.361  1.00  0.00    -0.005 C 
HETATM   19  C   UNL     1      31.047   7.551  -9.018  1.00  0.00     0.005 C 
ENDBRANCH  17  18
ENDBRANCH  16  17
ENDBRANCH  15  16
ENDBRANCH  14  15
ENDBRANCH  13  14
ENDBRANCH  12  13
ENDBRANCH  11  12
ENDBRANCH  10  11
ENDBRANCH   9  10
ENDBRANCH   8   9
ENDBRANCH   7   8
ENDBRANCH   6   7
ENDBRANCH   5   6
ENDBRANCH   3   5
ENDBRANCH   1   3
TORSDOF 15
ENDMDL
MODEL 13
REMARK VINA RESULT:      -4.8     27.216     28.810
REMARK  15 active torsions:
REMARK  status: ('A' for Active; 'I' for Inactive)
REMARK    1  A    between atoms: O_1  and  C_18 
REMARK    2  A    between atoms: C_3  and  C_4 
REMARK    3  A    between atoms: C_3  and  C_5 
REMARK    4  A    between atoms: C_4  and  C_6 
REMARK    5  A    between atoms: C_5  and  C_7 
REMARK    6  A    between atoms: C_6  and  C_8 
REMARK    7  A    between atoms: C_7  and  C_9 
REMARK    8  A    between atoms: C_8  and  C_10 
REMARK    9  A    between atoms: C_9  and  C_11 
REMARK   10  A    between atoms: C_10  and  C_12 
REMARK   11  A    between atoms: C_11  and  C_13 
REMARK   12  A    between atoms: C_12  and  C_14 
REMARK   13  A    between atoms: C_13  and  C_15 
REMARK   14  A    between atoms: C_14  and  C_16 
REMARK   15  A    between atoms: C_16  and  C_18 
ROOT
HETATM    1  O   UNL     1      32.589   4.896 -13.617  1.00  0.00    -0.776 OA
HETATM    2  H   UNL     1      32.032   4.373 -14.210  1.00  0.00     0.167 HD
ENDROOT
BRANCH   1   3
HETATM    3  C   UNL     1      32.319   4.988 -12.297  1.00  0.00     0.139 C 
HETATM    4  O   UNL     1      32.783   4.162 -11.524  1.00  0.00    -0.650 OA
BRANCH   3   5
HETATM    5  C   UNL     1      31.447   6.115 -11.807  1.00  0.00     0.110 C 
BRANCH   5   6
HETATM    6  C   UNL     1      30.988   7.055 -12.932  1.00  0.00     0.010 C 
BRANCH   6   7
HETATM    7  C   UNL     1      30.817   8.488 -12.415  1.00  0.00     0.001 C 
BRANCH   7   8
HETATM    8  C   UNL     1      31.015   8.552 -10.895  1.00  0.00     0.000 C 
BRANCH   8   9
HETATM    9  C   UNL     1      31.995   9.668 -10.514  1.00  0.00     0.000 C 
BRANCH   9  10
HETATM   10  C   UNL     1      31.701  10.201  -9.107  1.00  0.00     0.000 C 
BRANCH  10  11
HETATM   11  C   UNL     1      30.667   9.323  -8.391  1.00  0.00     0.000 C 
BRANCH  11  12
HETATM   12  C   UNL     1      30.641   9.617  -6.887  1.00  0.00     0.000 C 
BRANCH  12  13
HETATM   13  C   UNL     1      31.401   8.542  -6.102  1.00  0.00     0.000 C 
BRANCH  13  14
HETATM   14  C   UNL     1      30.439   7.491  -5.535  1.00  0.00     0.000 C 
BRANCH  14  15
HETATM   15  C   UNL     1      31.038   6.083  -5.636  1.00  0.00     0.000 C 
BRANCH  15  16
HETATM   16  C   UNL     1      30.335   5.263  -6.723  1.00  0.00     0.000 C 
BRANCH  16  17
HETATM   17  C   UNL     1      30.901   5.589  -8.111  1.00  0.00    -0.000 C 
BRANCH  17  18
HETATM   18  C   UNL     1      32.413   5.342  -8.161  1.00  0.00    -0.005 C 
HETATM   19  C   UNL     1      33.157   6.578  -8.657  1.00  0.00     0.005 C 
ENDBRANCH  17  18
ENDBRANCH  16  17
ENDBRANCH  15  16
ENDBRANCH  14  15
ENDBRANCH  13  14
ENDBRANCH  12  13
ENDBRANCH  11  12
ENDBRANCH  10  11
ENDBRANCH   9  10
ENDBRANCH   8   9
ENDBRANCH   7   8
ENDBRANCH   6   7
ENDBRANCH   5   6
ENDBRANCH   3   5
ENDBRANCH   1   3
TORSDOF 15
ENDMDL
MODEL 14
REMARK VINA RESULT:      -4.7     27.741     30.160
REMARK  15 active torsions:
REMARK  status: ('A' for Active; 'I' for Inactive)
REMARK    1  A    between atoms: O_1  and  C_18 
REMARK    2  A    between atoms: C_3  and  C_4 
REMARK    3  A    between atoms: C_3  and  C_5 
REMARK    4  A    between atoms: C_4  and  C_6 
REMARK    5  A    between atoms: C_5  and  C_7 
REMARK    6  A    between atoms: C_6  and  C_8 
REMARK    7  A    between atoms: C_7  and  C_9 
REMARK    8  A    between atoms: C_8  and  C_10 
REMARK    9  A    between atoms: C_9  and  C_11 
REMARK   10  A    between atoms: C_10  and  C_12 
REMARK   11  A    between atoms: C_11  and  C_13 
REMARK   12  A    between atoms: C_12  and  C_14 
REMARK   13  A    between atoms: C_13  and  C_15 
REMARK   14  A    between atoms: C_14  and  C_16 
REMARK   15  A    between atoms: C_16  and  C_18 
ROOT
HETATM    1  O   UNL     1      32.955   4.097 -11.439  1.00  0.00    -0.776 OA
HETATM    2  H   UNL     1      32.608   3.969 -10.545  1.00  0.00     0.167 HD
ENDROOT
BRANCH   1   3
HETATM    3  C   UNL     1      32.411   4.998 -12.284  1.00  0.00     0.139 C 
HETATM    4  O   UNL     1      32.630   4.915 -13.484  1.00  0.00    -0.650 OA
BRANCH   3   5
HETATM    5  C   UNL     1      31.539   6.092 -11.723  1.00  0.00     0.110 C 
BRANCH   5   6
HETATM    6  C   UNL     1      31.768   6.336 -10.223  1.00  0.00     0.010 C 
BRANCH   6   7
HETATM    7  C   UNL     1      33.016   7.195  -9.990  1.00  0.00     0.001 C 
BRANCH   7   8
HETATM    8  C   UNL     1      32.729   8.322  -8.990  1.00  0.00     0.000 C 
BRANCH   8   9
HETATM    9  C   UNL     1      31.314   8.881  -9.181  1.00  0.00     0.000 C 
BRANCH   9  10
HETATM   10  C   UNL     1      30.536   8.869  -7.861  1.00  0.00     0.000 C 
BRANCH  10  11
HETATM   11  C   UNL     1      31.182   7.915  -6.849  1.00  0.00     0.000 C 
BRANCH  11  12
HETATM   12  C   UNL     1      30.393   6.604  -6.746  1.00  0.00     0.000 C 
BRANCH  12  13
HETATM   13  C   UNL     1      31.240   5.501  -6.103  1.00  0.00     0.000 C 
BRANCH  13  14
HETATM   14  C   UNL     1      32.606   5.384  -6.791  1.00  0.00     0.000 C 
BRANCH  14  15
HETATM   15  C   UNL     1      33.747   5.514  -5.775  1.00  0.00     0.000 C 
BRANCH  15  16
HETATM   16  C   UNL     1      34.471   6.857  -5.930  1.00  0.00     0.000 C 
BRANCH  16  17
HETATM   17  C   UNL     1      34.064   7.832  -4.819  1.00  0.00    -0.000 C 
BRANCH  17  18
HETATM   18  C   UNL     1      34.763   9.186  -4.993  1.00  0.00    -0.005 C 
HETATM   19  C   UNL     1      34.996   9.500  -6.468  1.00  0.00     0.005 C 
ENDBRANCH  17  18
ENDBRANCH  16  17
ENDBRANCH  15  16
ENDBRANCH  14  15
ENDBRANCH  13  14
ENDBRANCH  12  13
ENDBRANCH  11  12
ENDBRANCH  10  11
ENDBRANCH   9  10
ENDBRANCH   8   9
ENDBRANCH   7   8
ENDBRANCH   6   7
ENDBRANCH   5   6
ENDBRANCH   3   5
ENDBRANCH   1   3
TORSDOF 15
ENDMDL
MODEL 15
REMARK VINA RESULT:      -4.7     26.135     27.939
REMARK  15 active torsions:
REMARK  status: ('A' for Active; 'I' for Inactive)
REMARK    1  A    between atoms: O_1  and  C_18 
REMARK    2  A    between atoms: C_3  and  C_4 
REMARK    3  A    between atoms: C_3  and  C_5 
REMARK    4  A    between atoms: C_4  and  C_6 
REMARK    5  A    between atoms: C_5  and  C_7 
REMARK    6  A    between atoms: C_6  and  C_8 
REMARK    7  A    between atoms: C_7  and  C_9 
REMARK    8  A    between atoms: C_8  and  C_10 
REMARK    9  A    between atoms: C_9  and  C_11 
REMARK   10  A    between atoms: C_10  and  C_12 
REMARK   11  A    between atoms: C_11  and  C_13 
REMARK   12  A    between atoms: C_12  and  C_14 
REMARK   13  A    between atoms: C_13  and  C_15 
REMARK   14  A    between atoms: C_14  and  C_16 
REMARK   15  A    between atoms: C_16  and  C_18 
ROOT
HETATM    1  O   UNL     1      28.412  11.641 -10.287  1.00  0.00    -0.776 OA
HETATM    2  H   UNL     1      27.508  11.957 -10.149  1.00  0.00     0.167 HD
ENDROOT
BRANCH   1   3
HETATM    3  C   UNL     1      28.908  10.597  -9.589  1.00  0.00     0.139 C 
HETATM    4  O   UNL     1      28.612  10.459  -8.411  1.00  0.00    -0.650 OA
BRANCH   3   5
HETATM    5  C   UNL     1      29.819   9.620 -10.286  1.00  0.00     0.110 C 
BRANCH   5   6
HETATM    6  C   UNL     1      31.190  10.219 -10.637  1.00  0.00     0.010 C 
BRANCH   6   7
HETATM    7  C   UNL     1      31.202  10.757 -12.072  1.00  0.00     0.001 C 
BRANCH   7   8
HETATM    8  C   UNL     1      32.102   9.902 -12.973  1.00  0.00     0.000 C 
BRANCH   8   9
HETATM    9  C   UNL     1      31.290   8.816 -13.689  1.00  0.00     0.000 C 
BRANCH   9  10
HETATM   10  C   UNL     1      32.046   7.482 -13.701  1.00  0.00     0.000 C 
BRANCH  10  11
HETATM   11  C   UNL     1      31.096   6.314 -13.993  1.00  0.00     0.000 C 
BRANCH  11  12
HETATM   12  C   UNL     1      31.006   5.364 -12.792  1.00  0.00     0.000 C 
BRANCH  12  13
HETATM   13  C   UNL     1      30.337   6.051 -11.596  1.00  0.00     0.000 C 
BRANCH  13  14
HETATM   14  C   UNL     1      30.811   5.435 -10.274  1.00  0.00     0.000 C 
BRANCH  14  15
HETATM   15  C   UNL     1      32.327   5.208 -10.283  1.00  0.00     0.000 C 
BRANCH  15  16
HETATM   16  C   UNL     1      32.981   5.807  -9.033  1.00  0.00     0.000 C 
BRANCH  16  17
HETATM   17  C   UNL     1      33.379   7.269  -9.267  1.00  0.00    -0.000 C 
BRANCH  17  18
HETATM   18  C   UNL     1      33.750   7.510 -10.734  1.00  0.00    -0.005 C 
HETATM   19  C   UNL     1      35.063   8.280 -10.851  1.00  0.00     0.005 C 
ENDBRANCH  17  18
ENDBRANCH  16  17
ENDBRANCH  15  16
ENDBRANCH  14  15
ENDBRANCH  13  14
ENDBRANCH  12  13
ENDBRANCH  11  12
ENDBRANCH  10  11
ENDBRANCH   9  10
ENDBRANCH   8   9
ENDBRANCH   7   8
ENDBRANCH   6   7
ENDBRANCH   5   6
ENDBRANCH   3   5
ENDBRANCH   1   3
TORSDOF 15
ENDMDL
MODEL 16
REMARK VINA RESULT:      -4.7     25.991     26.855
REMARK  15 active torsions:
REMARK  status: ('A' for Active; 'I' for Inactive)
REMARK    1  A    between atoms: O_1  and  C_18 
REMARK    2  A    between atoms: C_3  and  C_4 
REMARK    3  A    between atoms: C_3  and  C_5 
REMARK    4  A    between atoms: C_4  and  C_6 
REMARK    5  A    between atoms: C_5  and  C_7 
REMARK    6  A    between atoms: C_6  and  C_8 
REMARK    7  A    between atoms: C_7  and  C_9 
REMARK    8  A    between atoms: C_8  and  C_10 
REMARK    9  A    between atoms: C_9  and  C_11 
REMARK   10  A    between atoms: C_10  and  C_12 
REMARK   11  A    between atoms: C_11  and  C_13 
REMARK   12  A    between atoms: C_12  and  C_14 
REMARK   13  A    between atoms: C_13  and  C_15 
REMARK   14  A    between atoms: C_14  and  C_16 
REMARK   15  A    between atoms: C_16  and  C_18 
ROOT
HETATM    1  O   UNL     1      29.020  11.236 -11.028  1.00  0.00    -0.776 OA
HETATM    2  H   UNL     1      28.915  12.195 -10.964  1.00  0.00     0.167 HD
ENDROOT
BRANCH   1   3
HETATM    3  C   UNL     1      28.862  10.437  -9.952  1.00  0.00     0.139 C 
HETATM    4  O   UNL     1      27.897  10.592  -9.217  1.00  0.00    -0.650 OA
BRANCH   3   5
HETATM    5  C   UNL     1      29.885   9.365  -9.681  1.00  0.00     0.110 C 
BRANCH   5   6
HETATM    6  C   UNL     1      30.660   8.939 -10.938  1.00  0.00     0.010 C 
BRANCH   6   7
HETATM    7  C   UNL     1      31.674   7.837 -10.612  1.00  0.00     0.001 C 
BRANCH   7   8
HETATM    8  C   UNL     1      31.022   6.451 -10.685  1.00  0.00     0.000 C 
BRANCH   8   9
HETATM    9  C   UNL     1      30.562   6.133 -12.114  1.00  0.00     0.000 C 
BRANCH   9  10
HETATM   10  C   UNL     1      31.556   5.202 -12.817  1.00  0.00     0.000 C 
BRANCH  10  11
HETATM   11  C   UNL     1      31.991   5.782 -14.168  1.00  0.00     0.000 C 
BRANCH  11  12
HETATM   12  C   UNL     1      31.098   6.959 -14.576  1.00  0.00     0.000 C 
BRANCH  12  13
HETATM   13  C   UNL     1      30.594   6.795 -16.014  1.00  0.00     0.000 C 
BRANCH  13  14
HETATM   14  C   UNL     1      30.688   5.333 -16.467  1.00  0.00     0.000 C 
BRANCH  14  15
HETATM   15  C   UNL     1      30.824   5.237 -17.992  1.00  0.00     0.000 C 
BRANCH  15  16
HETATM   16  C   UNL     1      32.294   5.320 -18.419  1.00  0.00     0.000 C 
BRANCH  16  17
HETATM   17  C   UNL     1      32.521   6.491 -19.382  1.00  0.00    -0.000 C 
BRANCH  17  18
HETATM   18  C   UNL     1      33.057   7.720 -18.638  1.00  0.00    -0.005 C 
HETATM   19  C   UNL     1      34.257   8.323 -19.363  1.00  0.00     0.005 C 
ENDBRANCH  17  18
ENDBRANCH  16  17
ENDBRANCH  15  16
ENDBRANCH  14  15
ENDBRANCH  13  14
ENDBRANCH  12  13
ENDBRANCH  11  12
ENDBRANCH  10  11
ENDBRANCH   9  10
ENDBRANCH   8   9
ENDBRANCH   7   8
ENDBRANCH   6   7
ENDBRANCH   5   6
ENDBRANCH   3   5
ENDBRANCH   1   3
TORSDOF 15
ENDMDL
MODEL 17
REMARK VINA RESULT:      -4.7     26.517     27.471
REMARK  15 active torsions:
REMARK  status: ('A' for Active; 'I' for Inactive)
REMARK    1  A    between atoms: O_1  and  C_18 
REMARK    2  A    between atoms: C_3  and  C_4 
REMARK    3  A    between atoms: C_3  and  C_5 
REMARK    4  A    between atoms: C_4  and  C_6 
REMARK    5  A    between atoms: C_5  and  C_7 
REMARK    6  A    between atoms: C_6  and  C_8 
REMARK    7  A    between atoms: C_7  and  C_9 
REMARK    8  A    between atoms: C_8  and  C_10 
REMARK    9  A    between atoms: C_9  and  C_11 
REMARK   10  A    between atoms: C_10  and  C_12 
REMARK   11  A    between atoms: C_11  and  C_13 
REMARK   12  A    between atoms: C_12  and  C_14 
REMARK   13  A    between atoms: C_13  and  C_15 
REMARK   14  A    between atoms: C_14  and  C_16 
REMARK   15  A    between atoms: C_16  and  C_18 
ROOT
HETATM    1  O   UNL     1      28.046  10.523 -14.310  1.00  0.00    -0.776 OA
HETATM    2  H   UNL     1      28.302   9.650 -13.979  1.00  0.00     0.167 HD
ENDROOT
BRANCH   1   3
HETATM    3  C   UNL     1      28.795  11.618 -14.061  1.00  0.00     0.139 C 
HETATM    4  O   UNL     1      28.313  12.554 -13.439  1.00  0.00    -0.650 OA
BRANCH   3   5
HETATM    5  C   UNL     1      30.217  11.659 -14.557  1.00  0.00     0.110 C 
BRANCH   5   6
HETATM    6  C   UNL     1      30.319  11.872 -16.076  1.00  0.00     0.010 C 
BRANCH   6   7
HETATM    7  C   UNL     1      30.949  10.653 -16.760  1.00  0.00     0.001 C 
BRANCH   7   8
HETATM    8  C   UNL     1      32.210  10.196 -16.017  1.00  0.00     0.000 C 
BRANCH   8   9
HETATM    9  C   UNL     1      32.826   8.961 -16.686  1.00  0.00     0.000 C 
BRANCH   9  10
HETATM   10  C   UNL     1      34.019   8.436 -15.879  1.00  0.00     0.000 C 
BRANCH  10  11
HETATM   11  C   UNL     1      34.108   6.907 -15.959  1.00  0.00     0.000 C 
BRANCH  11  12
HETATM   12  C   UNL     1      33.294   6.249 -14.840  1.00  0.00     0.000 C 
BRANCH  12  13
HETATM   13  C   UNL     1      32.432   5.104 -15.386  1.00  0.00     0.000 C 
BRANCH  13  14
HETATM   14  C   UNL     1      30.941   5.452 -15.306  1.00  0.00     0.000 C 
BRANCH  14  15
HETATM   15  C   UNL     1      30.251   5.232 -16.658  1.00  0.00     0.000 C 
BRANCH  15  16
HETATM   16  C   UNL     1      31.257   5.329 -17.811  1.00  0.00     0.000 C 
BRANCH  16  17
HETATM   17  C   UNL     1      31.005   6.582 -18.657  1.00  0.00    -0.000 C 
BRANCH  17  18
HETATM   18  C   UNL     1      32.135   6.797 -19.671  1.00  0.00    -0.005 C 
HETATM   19  C   UNL     1      33.195   5.706 -19.555  1.00  0.00     0.005 C 
ENDBRANCH  17  18
ENDBRANCH  16  17
ENDBRANCH  15  16
ENDBRANCH  14  15
ENDBRANCH  13  14
ENDBRANCH  12  13
ENDBRANCH  11  12
ENDBRANCH  10  11
ENDBRANCH   9  10
ENDBRANCH   8   9
ENDBRANCH   7   8
ENDBRANCH   6   7
ENDBRANCH   5   6
ENDBRANCH   3   5
ENDBRANCH   1   3
TORSDOF 15
ENDMDL
MODEL 18
REMARK VINA RESULT:      -4.7     25.769     28.146
REMARK  15 active torsions:
REMARK  status: ('A' for Active; 'I' for Inactive)
REMARK    1  A    between atoms: O_1  and  C_18 
REMARK    2  A    between atoms: C_3  and  C_4 
REMARK    3  A    between atoms: C_3  and  C_5 
REMARK    4  A    between atoms: C_4  and  C_6 
REMARK    5  A    between atoms: C_5  and  C_7 
REMARK    6  A    between atoms: C_6  and  C_8 
REMARK    7  A    between atoms: C_7  and  C_9 
REMARK    8  A    between atoms: C_8  and  C_10 
REMARK    9  A    between atoms: C_9  and  C_11 
REMARK   10  A    between atoms: C_10  and  C_12 
REMARK   11  A    between atoms: C_11  and  C_13 
REMARK   12  A    between atoms: C_12  and  C_14 
REMARK   13  A    between atoms: C_13  and  C_15 
REMARK   14  A    between atoms: C_14  and  C_16 
REMARK   15  A    between atoms: C_16  and  C_18 
ROOT
HETATM    1  O   UNL     1      28.094  11.065  -9.632  1.00  0.00    -0.776 OA
HETATM    2  H   UNL     1      28.353  11.766 -10.247  1.00  0.00     0.167 HD
ENDROOT
BRANCH   1   3
HETATM    3  C   UNL     1      29.008  10.422  -8.874  1.00  0.00     0.139 C 
HETATM    4  O   UNL     1      29.079  10.659  -7.676  1.00  0.00    -0.650 OA
BRANCH   3   5
HETATM    5  C   UNL     1      29.923   9.419  -9.527  1.00  0.00     0.110 C 
BRANCH   5   6
HETATM    6  C   UNL     1      30.243   9.758 -10.991  1.00  0.00     0.010 C 
BRANCH   6   7
HETATM    7  C   UNL     1      31.388   8.887 -11.519  1.00  0.00     0.001 C 
BRANCH   7   8
HETATM    8  C   UNL     1      31.078   8.366 -12.928  1.00  0.00     0.000 C 
BRANCH   8   9
HETATM    9  C   UNL     1      31.263   6.846 -13.005  1.00  0.00     0.000 C 
BRANCH   9  10
HETATM   10  C   UNL     1      30.825   6.171 -11.700  1.00  0.00     0.000 C 
BRANCH  10  11
HETATM   11  C   UNL     1      31.716   4.966 -11.378  1.00  0.00     0.000 C 
BRANCH  11  12
HETATM   12  C   UNL     1      32.961   5.395 -10.593  1.00  0.00     0.000 C 
BRANCH  12  13
HETATM   13  C   UNL     1      32.576   6.211  -9.354  1.00  0.00     0.000 C 
BRANCH  13  14
HETATM   14  C   UNL     1      32.202   5.293  -8.184  1.00  0.00     0.000 C 
BRANCH  14  15
HETATM   15  C   UNL     1      30.683   5.259  -7.976  1.00  0.00     0.000 C 
BRANCH  15  16
HETATM   16  C   UNL     1      30.314   5.680  -6.549  1.00  0.00     0.000 C 
BRANCH  16  17
HETATM   17  C   UNL     1      30.628   7.162  -6.314  1.00  0.00    -0.000 C 
BRANCH  17  18
HETATM   18  C   UNL     1      31.497   7.349  -5.065  1.00  0.00    -0.005 C 
HETATM   19  C   UNL     1      31.820   6.008  -4.413  1.00  0.00     0.005 C 
ENDBRANCH  17  18
ENDBRANCH  16  17
ENDBRANCH  15  16
ENDBRANCH  14  15
ENDBRANCH  13  14
ENDBRANCH  12  13
ENDBRANCH  11  12
ENDBRANCH  10  11
ENDBRANCH   9  10
ENDBRANCH   8   9
ENDBRANCH   7   8
ENDBRANCH   6   7
ENDBRANCH   5   6
ENDBRANCH   3   5
ENDBRANCH   1   3
TORSDOF 15
ENDMDL
MODEL 19
REMARK VINA RESULT:      -4.7     26.495     28.351
REMARK  15 active torsions:
REMARK  status: ('A' for Active; 'I' for Inactive)
REMARK    1  A    between atoms: O_1  and  C_18 
REMARK    2  A    between atoms: C_3  and  C_4 
REMARK    3  A    between atoms: C_3  and  C_5 
REMARK    4  A    between atoms: C_4  and  C_6 
REMARK    5  A    between atoms: C_5  and  C_7 
REMARK    6  A    between atoms: C_6  and  C_8 
REMARK    7  A    between atoms: C_7  and  C_9 
REMARK    8  A    between atoms: C_8  and  C_10 
REMARK    9  A    between atoms: C_9  and  C_11 
REMARK   10  A    between atoms: C_10  and  C_12 
REMARK   11  A    between atoms: C_11  and  C_13 
REMARK   12  A    between atoms: C_12  and  C_14 
REMARK   13  A    between atoms: C_13  and  C_15 
REMARK   14  A    between atoms: C_14  and  C_16 
REMARK   15  A    between atoms: C_16  and  C_18 
ROOT
HETATM    1  O   UNL     1      30.947  12.503 -11.627  1.00  0.00    -0.776 OA
HETATM    2  H   UNL     1      31.816  12.681 -11.242  1.00  0.00     0.167 HD
ENDROOT
BRANCH   1   3
HETATM    3  C   UNL     1      30.159  11.511 -11.159  1.00  0.00     0.139 C 
HETATM    4  O   UNL     1      28.978  11.475 -11.471  1.00  0.00    -0.650 OA
BRANCH   3   5
HETATM    5  C   UNL     1      30.761  10.465 -10.257  1.00  0.00     0.110 C 
BRANCH   5   6
HETATM    6  C   UNL     1      30.663   9.044 -10.833  1.00  0.00     0.010 C 
BRANCH   6   7
HETATM    7  C   UNL     1      31.452   8.925 -12.142  1.00  0.00     0.001 C 
BRANCH   7   8
HETATM    8  C   UNL     1      32.950   8.747 -11.867  1.00  0.00     0.000 C 
BRANCH   8   9
HETATM    9  C   UNL     1      33.633   7.986 -13.010  1.00  0.00     0.000 C 
BRANCH   9  10
HETATM   10  C   UNL     1      32.700   7.859 -14.220  1.00  0.00     0.000 C 
BRANCH  10  11
HETATM   11  C   UNL     1      32.957   6.551 -14.978  1.00  0.00     0.000 C 
BRANCH  11  12
HETATM   12  C   UNL     1      32.610   5.335 -14.112  1.00  0.00     0.000 C 
BRANCH  12  13
HETATM   13  C   UNL     1      31.185   5.442 -13.558  1.00  0.00     0.000 C 
BRANCH  13  14
HETATM   14  C   UNL     1      31.166   5.221 -12.040  1.00  0.00     0.000 C 
BRANCH  14  15
HETATM   15  C   UNL     1      32.524   4.710 -11.542  1.00  0.00     0.000 C 
BRANCH  15  16
HETATM   16  C   UNL     1      32.917   5.388 -10.224  1.00  0.00     0.000 C 
BRANCH  16  17
HETATM   17  C   UNL     1      31.674   5.814  -9.433  1.00  0.00    -0.000 C 
BRANCH  17  18
HETATM   18  C   UNL     1      31.691   5.218  -8.021  1.00  0.00    -0.005 C 
HETATM   19  C   UNL     1      30.544   5.768  -7.177  1.00  0.00     0.005 C 
ENDBRANCH  17  18
ENDBRANCH  16  17
ENDBRANCH  15  16
ENDBRANCH  14  15
ENDBRANCH  13  14
ENDBRANCH  12  13
ENDBRANCH  11  12
ENDBRANCH  10  11
ENDBRANCH   9  10
ENDBRANCH   8   9
ENDBRANCH   7   8
ENDBRANCH   6   7
ENDBRANCH   5   6
ENDBRANCH   3   5
ENDBRANCH   1   3
TORSDOF 15
ENDMDL
MODEL 20
REMARK VINA RESULT:      -4.7     26.702     27.959
REMARK  15 active torsions:
REMARK  status: ('A' for Active; 'I' for Inactive)
REMARK    1  A    between atoms: O_1  and  C_18 
REMARK    2  A    between atoms: C_3  and  C_4 
REMARK    3  A    between atoms: C_3  and  C_5 
REMARK    4  A    between atoms: C_4  and  C_6 
REMARK    5  A    between atoms: C_5  and  C_7 
REMARK    6  A    between atoms: C_6  and  C_8 
REMARK    7  A    between atoms: C_7  and  C_9 
REMARK    8  A    between atoms: C_8  and  C_10 
REMARK    9  A    between atoms: C_9  and  C_11 
REMARK   10  A    between atoms: C_10  and  C_12 
REMARK   11  A    between atoms: C_11  and  C_13 
REMARK   12  A    between atoms: C_12  and  C_14 
REMARK   13  A    between atoms: C_13  and  C_15 
REMARK   14  A    between atoms: C_14  and  C_16 
REMARK   15  A    between atoms: C_16  and  C_18 
ROOT
HETATM    1  O   UNL     1      30.090   9.470 -10.354  1.00  0.00    -0.776 OA
HETATM    2  H   UNL     1      29.431   9.754  -9.704  1.00  0.00     0.167 HD
ENDROOT
BRANCH   1   3
HETATM    3  C   UNL     1      30.009   9.846 -11.648  1.00  0.00     0.139 C 
HETATM    4  O   UNL     1      29.221  10.721 -11.978  1.00  0.00    -0.650 OA
BRANCH   3   5
HETATM    5  C   UNL     1      30.899   9.173 -12.661  1.00  0.00     0.110 C 
BRANCH   5   6
HETATM    6  C   UNL     1      32.241   9.895 -12.858  1.00  0.00     0.010 C 
BRANCH   6   7
HETATM    7  C   UNL     1      33.417   8.944 -12.611  1.00  0.00     0.001 C 
BRANCH   7   8
HETATM    8  C   UNL     1      33.356   8.347 -11.200  1.00  0.00     0.000 C 
BRANCH   8   9
HETATM    9  C   UNL     1      34.559   7.434 -10.935  1.00  0.00     0.000 C 
BRANCH   9  10
HETATM   10  C   UNL     1      34.103   6.015 -10.576  1.00  0.00     0.000 C 
BRANCH  10  11
HETATM   11  C   UNL     1      32.732   6.034  -9.889  1.00  0.00     0.000 C 
BRANCH  11  12
HETATM   12  C   UNL     1      31.744   5.104 -10.603  1.00  0.00     0.000 C 
BRANCH  12  13
HETATM   13  C   UNL     1      30.728   5.905 -11.424  1.00  0.00     0.000 C 
BRANCH  13  14
HETATM   14  C   UNL     1      30.699   5.426 -12.881  1.00  0.00     0.000 C 
BRANCH  14  15
HETATM   15  C   UNL     1      32.119   5.294 -13.446  1.00  0.00     0.000 C 
BRANCH  15  16
HETATM   16  C   UNL     1      32.280   6.119 -14.728  1.00  0.00     0.000 C 
BRANCH  16  17
HETATM   17  C   UNL     1      30.930   6.320 -15.427  1.00  0.00    -0.000 C 
BRANCH  17  18
HETATM   18  C   UNL     1      30.715   5.267 -16.520  1.00  0.00    -0.005 C 
HETATM   19  C   UNL     1      31.991   5.042 -17.327  1.00  0.00     0.005 C 
ENDBRANCH  17  18
ENDBRANCH  16  17
ENDBRANCH  15  16
ENDBRANCH  14  15
ENDBRANCH  13  14
ENDBRANCH  12  13
ENDBRANCH  11  12
ENDBRANCH  10  11
ENDBRANCH   9  10
ENDBRANCH   8   9
ENDBRANCH   7   8
ENDBRANCH   6   7
ENDBRANCH   5   6
ENDBRANCH   3   5
ENDBRANCH   1   3
TORSDOF 15
ENDMDL
