REMARK  2 active torsions:
REMARK  status: ('A' for Active; 'I' for Inactive)
REMARK    1  A    between atoms: N_3  and  C_15 
REMARK    2  A    between atoms: C_5  and  C_7 
ROOT
HETATM    1  S   UNL     1      -1.238   1.437   0.422  1.00  0.00    -0.069 SA
HETATM    2  N   UNL     1      -1.219  -1.044  -0.093  1.00  0.00    -0.344 N 
HETATM    3  C   UNL     1      -2.530  -0.641  -0.053  1.00  0.00     0.052 A 
HETATM    4  C   UNL     1      -0.362   0.011   0.126  1.00  0.00     0.087 A 
HETATM    5  C   UNL     1      -2.722   0.704   0.220  1.00  0.00     0.034 A 
HETATM    6  C   UNL     1      -3.651  -1.467  -0.246  1.00  0.00     0.031 A 
HETATM    7  C   UNL     1      -3.985   1.283   0.307  1.00  0.00     0.028 A 
HETATM    8  C   UNL     1      -0.862  -2.457  -0.282  1.00  0.00     0.157 C 
HETATM    9  C   UNL     1      -5.112   0.464   0.109  1.00  0.00    -0.061 A 
HETATM   10  C   UNL     1      -4.937  -0.909  -0.166  1.00  0.00     0.009 A 
HETATM   11  C   UNL     1      -6.496   1.034   0.190  1.00  0.00     0.048 C 
ENDROOT
BRANCH   4  12
HETATM   12  C   UNL     1       1.136   0.015   0.094  1.00  0.00    -0.002 A 
HETATM   13  C   UNL     1       1.887  -0.861  -0.710  1.00  0.00     0.016 A 
HETATM   14  C   UNL     1       3.284  -0.808  -0.726  1.00  0.00     0.030 A 
HETATM   15  C   UNL     1       3.990   0.131   0.055  1.00  0.00     0.029 A 
HETATM   16  C   UNL     1       3.232   1.023   0.843  1.00  0.00     0.030 A 
HETATM   17  C   UNL     1       1.836   0.970   0.853  1.00  0.00     0.016 A 
BRANCH  15  18
HETATM   18  N   UNL     1       5.433   0.186   0.040  1.00  0.00    -0.390 N 
HETATM   19  C   UNL     1       6.202  -0.738  -0.783  1.00  0.00     0.149 C 
HETATM   20  C   UNL     1       6.147   1.165   0.848  1.00  0.00     0.149 C 
ENDBRANCH  15  18
ENDBRANCH   4  12
TORSDOF 2
