MODEL 1
REMARK VINA RESULT:      -4.8      0.000      0.000
REMARK  15 active torsions:
REMARK  status: ('A' for Active; 'I' for Inactive)
REMARK    1  A    between atoms: O_1  and  C_18 
REMARK    2  A    between atoms: C_3  and  C_4 
REMARK    3  A    between atoms: C_3  and  C_5 
REMARK    4  A    between atoms: C_4  and  C_6 
REMARK    5  A    between atoms: C_5  and  C_7 
REMARK    6  A    between atoms: C_6  and  C_8 
REMARK    7  A    between atoms: C_7  and  C_9 
REMARK    8  A    between atoms: C_8  and  C_10 
REMARK    9  A    between atoms: C_9  and  C_11 
REMARK   10  A    between atoms: C_10  and  C_12 
REMARK   11  A    between atoms: C_11  and  C_13 
REMARK   12  A    between atoms: C_12  and  C_14 
REMARK   13  A    between atoms: C_13  and  C_15 
REMARK   14  A    between atoms: C_14  and  C_16 
REMARK   15  A    between atoms: C_16  and  C_18 
ROOT
HETATM    1  O   UNL     1      38.902   6.321 -20.325  1.00  0.00    -0.776 OA
HETATM    2  H   UNL     1      38.171   5.721 -20.529  1.00  0.00     0.167 HD
ENDROOT
BRANCH   1   3
HETATM    3  C   UNL     1      38.736   7.377 -19.500  1.00  0.00     0.139 C 
HETATM    4  O   UNL     1      37.886   8.218 -19.754  1.00  0.00    -0.650 OA
BRANCH   3   5
HETATM    5  C   UNL     1      39.610   7.493 -18.278  1.00  0.00     0.110 C 
BRANCH   5   6
HETATM    6  C   UNL     1      39.504   8.862 -17.588  1.00  0.00     0.010 C 
BRANCH   6   7
HETATM    7  C   UNL     1      39.029   8.711 -16.139  1.00  0.00     0.001 C 
BRANCH   7   8
HETATM    8  C   UNL     1      39.023   7.238 -15.712  1.00  0.00     0.000 C 
BRANCH   8   9
HETATM    9  C   UNL     1      38.767   7.103 -14.206  1.00  0.00     0.000 C 
BRANCH   9  10
HETATM   10  C   UNL     1      39.963   7.617 -13.396  1.00  0.00     0.000 C 
BRANCH  10  11
HETATM   11  C   UNL     1      39.548   8.772 -12.476  1.00  0.00     0.000 C 
BRANCH  11  12
HETATM   12  C   UNL     1      38.517   8.308 -11.440  1.00  0.00     0.000 C 
BRANCH  12  13
HETATM   13  C   UNL     1      39.174   7.441 -10.360  1.00  0.00     0.000 C 
BRANCH  13  14
HETATM   14  C   UNL     1      40.499   8.055  -9.891  1.00  0.00     0.000 C 
BRANCH  14  15
HETATM   15  C   UNL     1      40.419   8.480  -8.420  1.00  0.00     0.000 C 
BRANCH  15  16
HETATM   16  C   UNL     1      39.300   7.727  -7.690  1.00  0.00     0.000 C 
BRANCH  16  17
HETATM   17  C   UNL     1      38.368   8.701  -6.959  1.00  0.00    -0.000 C 
BRANCH  17  18
HETATM   18  C   UNL     1      37.887   8.108  -5.630  1.00  0.00    -0.005 C 
HETATM   19  C   UNL     1      38.724   6.895  -5.233  1.00  0.00     0.005 C 
ENDBRANCH  17  18
ENDBRANCH  16  17
ENDBRANCH  15  16
ENDBRANCH  14  15
ENDBRANCH  13  14
ENDBRANCH  12  13
ENDBRANCH  11  12
ENDBRANCH  10  11
ENDBRANCH   9  10
ENDBRANCH   8   9
ENDBRANCH   7   8
ENDBRANCH   6   7
ENDBRANCH   5   6
ENDBRANCH   3   5
ENDBRANCH   1   3
TORSDOF 15
ENDMDL
MODEL 2
REMARK VINA RESULT:      -4.8     28.707     30.698
REMARK  15 active torsions:
REMARK  status: ('A' for Active; 'I' for Inactive)
REMARK    1  A    between atoms: O_1  and  C_18 
REMARK    2  A    between atoms: C_3  and  C_4 
REMARK    3  A    between atoms: C_3  and  C_5 
REMARK    4  A    between atoms: C_4  and  C_6 
REMARK    5  A    between atoms: C_5  and  C_7 
REMARK    6  A    between atoms: C_6  and  C_8 
REMARK    7  A    between atoms: C_7  and  C_9 
REMARK    8  A    between atoms: C_8  and  C_10 
REMARK    9  A    between atoms: C_9  and  C_11 
REMARK   10  A    between atoms: C_10  and  C_12 
REMARK   11  A    between atoms: C_11  and  C_13 
REMARK   12  A    between atoms: C_12  and  C_14 
REMARK   13  A    between atoms: C_13  and  C_15 
REMARK   14  A    between atoms: C_14  and  C_16 
REMARK   15  A    between atoms: C_16  and  C_18 
ROOT
HETATM    1  O   UNL     1      30.133 -21.297  -4.157  1.00  0.00    -0.776 OA
HETATM    2  H   UNL     1      29.392 -21.272  -4.777  1.00  0.00     0.167 HD
ENDROOT
BRANCH   1   3
HETATM    3  C   UNL     1      30.753 -20.167  -3.755  1.00  0.00     0.139 C 
HETATM    4  O   UNL     1      31.026 -20.012  -2.573  1.00  0.00    -0.650 OA
BRANCH   3   5
HETATM    5  C   UNL     1      31.096 -19.118  -4.780  1.00  0.00     0.110 C 
BRANCH   5   6
HETATM    6  C   UNL     1      30.923 -19.608  -6.226  1.00  0.00     0.010 C 
BRANCH   6   7
HETATM    7  C   UNL     1      30.223 -18.549  -7.085  1.00  0.00     0.001 C 
BRANCH   7   8
HETATM    8  C   UNL     1      30.859 -18.464  -8.479  1.00  0.00     0.000 C 
BRANCH   8   9
HETATM    9  C   UNL     1      30.195 -19.450  -9.447  1.00  0.00     0.000 C 
BRANCH   9  10
HETATM   10  C   UNL     1      31.241 -20.331 -10.139  1.00  0.00     0.000 C 
BRANCH  10  11
HETATM   11  C   UNL     1      31.114 -20.242 -11.664  1.00  0.00     0.000 C 
BRANCH  11  12
HETATM   12  C   UNL     1      30.429 -18.937 -12.086  1.00  0.00     0.000 C 
BRANCH  12  13
HETATM   13  C   UNL     1      29.986 -18.996 -13.552  1.00  0.00     0.000 C 
BRANCH  13  14
HETATM   14  C   UNL     1      31.174 -19.298 -14.474  1.00  0.00     0.000 C 
BRANCH  14  15
HETATM   15  C   UNL     1      30.744 -20.177 -15.655  1.00  0.00     0.000 C 
BRANCH  15  16
HETATM   16  C   UNL     1      30.688 -19.364 -16.953  1.00  0.00     0.000 C 
BRANCH  16  17
HETATM   17  C   UNL     1      31.134 -20.209 -18.152  1.00  0.00    -0.000 C 
BRANCH  17  18
HETATM   18  C   UNL     1      30.368 -19.814 -19.420  1.00  0.00    -0.005 C 
HETATM   19  C   UNL     1      30.893 -20.569 -20.638  1.00  0.00     0.005 C 
ENDBRANCH  17  18
ENDBRANCH  16  17
ENDBRANCH  15  16
ENDBRANCH  14  15
ENDBRANCH  13  14
ENDBRANCH  12  13
ENDBRANCH  11  12
ENDBRANCH  10  11
ENDBRANCH   9  10
ENDBRANCH   8   9
ENDBRANCH   7   8
ENDBRANCH   6   7
ENDBRANCH   5   6
ENDBRANCH   3   5
ENDBRANCH   1   3
TORSDOF 15
ENDMDL
MODEL 3
REMARK VINA RESULT:      -4.7     27.428     29.501
REMARK  15 active torsions:
REMARK  status: ('A' for Active; 'I' for Inactive)
REMARK    1  A    between atoms: O_1  and  C_18 
REMARK    2  A    between atoms: C_3  and  C_4 
REMARK    3  A    between atoms: C_3  and  C_5 
REMARK    4  A    between atoms: C_4  and  C_6 
REMARK    5  A    between atoms: C_5  and  C_7 
REMARK    6  A    between atoms: C_6  and  C_8 
REMARK    7  A    between atoms: C_7  and  C_9 
REMARK    8  A    between atoms: C_8  and  C_10 
REMARK    9  A    between atoms: C_9  and  C_11 
REMARK   10  A    between atoms: C_10  and  C_12 
REMARK   11  A    between atoms: C_11  and  C_13 
REMARK   12  A    between atoms: C_12  and  C_14 
REMARK   13  A    between atoms: C_13  and  C_15 
REMARK   14  A    between atoms: C_14  and  C_16 
REMARK   15  A    between atoms: C_16  and  C_18 
ROOT
HETATM    1  O   UNL     1      32.235 -20.960  -4.959  1.00  0.00    -0.776 OA
HETATM    2  H   UNL     1      33.016 -20.608  -5.410  1.00  0.00     0.167 HD
ENDROOT
BRANCH   1   3
HETATM    3  C   UNL     1      30.988 -20.590  -5.319  1.00  0.00     0.139 C 
HETATM    4  O   UNL     1      30.597 -20.801  -6.458  1.00  0.00    -0.650 OA
BRANCH   3   5
HETATM    5  C   UNL     1      30.102 -19.922  -4.300  1.00  0.00     0.110 C 
BRANCH   5   6
HETATM    6  C   UNL     1      29.861 -18.433  -4.593  1.00  0.00     0.010 C 
BRANCH   6   7
HETATM    7  C   UNL     1      31.177 -17.648  -4.566  1.00  0.00     0.001 C 
BRANCH   7   8
HETATM    8  C   UNL     1      31.302 -16.742  -5.796  1.00  0.00     0.000 C 
BRANCH   8   9
HETATM    9  C   UNL     1      29.939 -16.529  -6.465  1.00  0.00     0.000 C 
BRANCH   9  10
HETATM   10  C   UNL     1      30.014 -16.811  -7.970  1.00  0.00     0.000 C 
BRANCH  10  11
HETATM   11  C   UNL     1      29.851 -18.308  -8.257  1.00  0.00     0.000 C 
BRANCH  11  12
HETATM   12  C   UNL     1      30.880 -18.787  -9.288  1.00  0.00     0.000 C 
BRANCH  12  13
HETATM   13  C   UNL     1      31.004 -17.790 -10.447  1.00  0.00     0.000 C 
BRANCH  13  14
HETATM   14  C   UNL     1      30.213 -18.269 -11.671  1.00  0.00     0.000 C 
BRANCH  14  15
HETATM   15  C   UNL     1      30.282 -17.242 -12.807  1.00  0.00     0.000 C 
BRANCH  15  16
HETATM   16  C   UNL     1      30.056 -17.911 -14.168  1.00  0.00     0.000 C 
BRANCH  16  17
HETATM   17  C   UNL     1      29.676 -19.387 -13.998  1.00  0.00    -0.000 C 
BRANCH  17  18
HETATM   18  C   UNL     1      30.633 -20.294 -14.781  1.00  0.00    -0.005 C 
HETATM   19  C   UNL     1      32.030 -20.281 -14.168  1.00  0.00     0.005 C 
ENDBRANCH  17  18
ENDBRANCH  16  17
ENDBRANCH  15  16
ENDBRANCH  14  15
ENDBRANCH  13  14
ENDBRANCH  12  13
ENDBRANCH  11  12
ENDBRANCH  10  11
ENDBRANCH   9  10
ENDBRANCH   8   9
ENDBRANCH   7   8
ENDBRANCH   6   7
ENDBRANCH   5   6
ENDBRANCH   3   5
ENDBRANCH   1   3
TORSDOF 15
ENDMDL
MODEL 4
REMARK VINA RESULT:      -4.6     27.481     29.201
REMARK  15 active torsions:
REMARK  status: ('A' for Active; 'I' for Inactive)
REMARK    1  A    between atoms: O_1  and  C_18 
REMARK    2  A    between atoms: C_3  and  C_4 
REMARK    3  A    between atoms: C_3  and  C_5 
REMARK    4  A    between atoms: C_4  and  C_6 
REMARK    5  A    between atoms: C_5  and  C_7 
REMARK    6  A    between atoms: C_6  and  C_8 
REMARK    7  A    between atoms: C_7  and  C_9 
REMARK    8  A    between atoms: C_8  and  C_10 
REMARK    9  A    between atoms: C_9  and  C_11 
REMARK   10  A    between atoms: C_10  and  C_12 
REMARK   11  A    between atoms: C_11  and  C_13 
REMARK   12  A    between atoms: C_12  and  C_14 
REMARK   13  A    between atoms: C_13  and  C_15 
REMARK   14  A    between atoms: C_14  and  C_16 
REMARK   15  A    between atoms: C_16  and  C_18 
ROOT
HETATM    1  O   UNL     1      29.880 -21.050  -4.129  1.00  0.00    -0.776 OA
HETATM    2  H   UNL     1      29.973 -21.397  -3.231  1.00  0.00     0.167 HD
ENDROOT
BRANCH   1   3
HETATM    3  C   UNL     1      30.885 -20.382  -4.733  1.00  0.00     0.139 C 
HETATM    4  O   UNL     1      32.005 -20.396  -4.242  1.00  0.00    -0.650 OA
BRANCH   3   5
HETATM    5  C   UNL     1      30.601 -19.631  -6.008  1.00  0.00     0.110 C 
BRANCH   5   6
HETATM    6  C   UNL     1      31.147 -20.337  -7.259  1.00  0.00     0.010 C 
BRANCH   6   7
HETATM    7  C   UNL     1      30.159 -20.228  -8.426  1.00  0.00     0.001 C 
BRANCH   7   8
HETATM    8  C   UNL     1      30.899 -20.166  -9.768  1.00  0.00     0.000 C 
BRANCH   8   9
HETATM    9  C   UNL     1      30.401 -18.991 -10.618  1.00  0.00     0.000 C 
BRANCH   9  10
HETATM   10  C   UNL     1      30.302 -17.710  -9.781  1.00  0.00     0.000 C 
BRANCH  10  11
HETATM   11  C   UNL     1      31.352 -16.683 -10.222  1.00  0.00     0.000 C 
BRANCH  11  12
HETATM   12  C   UNL     1      30.687 -15.387 -10.700  1.00  0.00     0.000 C 
BRANCH  12  13
HETATM   13  C   UNL     1      30.946 -15.154 -12.193  1.00  0.00     0.000 C 
BRANCH  13  14
HETATM   14  C   UNL     1      31.930 -16.190 -12.749  1.00  0.00     0.000 C 
BRANCH  14  15
HETATM   15  C   UNL     1      31.408 -16.801 -14.055  1.00  0.00     0.000 C 
BRANCH  15  16
HETATM   16  C   UNL     1      29.954 -17.262 -13.902  1.00  0.00     0.000 C 
BRANCH  16  17
HETATM   17  C   UNL     1      29.835 -18.779 -14.089  1.00  0.00    -0.000 C 
BRANCH  17  18
HETATM   18  C   UNL     1      31.184 -19.392 -14.484  1.00  0.00    -0.005 C 
HETATM   19  C   UNL     1      30.992 -20.633 -15.351  1.00  0.00     0.005 C 
ENDBRANCH  17  18
ENDBRANCH  16  17
ENDBRANCH  15  16
ENDBRANCH  14  15
ENDBRANCH  13  14
ENDBRANCH  12  13
ENDBRANCH  11  12
ENDBRANCH  10  11
ENDBRANCH   9  10
ENDBRANCH   8   9
ENDBRANCH   7   8
ENDBRANCH   6   7
ENDBRANCH   5   6
ENDBRANCH   3   5
ENDBRANCH   1   3
TORSDOF 15
ENDMDL
MODEL 5
REMARK VINA RESULT:      -4.6      2.120      4.136
REMARK  15 active torsions:
REMARK  status: ('A' for Active; 'I' for Inactive)
REMARK    1  A    between atoms: O_1  and  C_18 
REMARK    2  A    between atoms: C_3  and  C_4 
REMARK    3  A    between atoms: C_3  and  C_5 
REMARK    4  A    between atoms: C_4  and  C_6 
REMARK    5  A    between atoms: C_5  and  C_7 
REMARK    6  A    between atoms: C_6  and  C_8 
REMARK    7  A    between atoms: C_7  and  C_9 
REMARK    8  A    between atoms: C_8  and  C_10 
REMARK    9  A    between atoms: C_9  and  C_11 
REMARK   10  A    between atoms: C_10  and  C_12 
REMARK   11  A    between atoms: C_11  and  C_13 
REMARK   12  A    between atoms: C_12  and  C_14 
REMARK   13  A    between atoms: C_13  and  C_15 
REMARK   14  A    between atoms: C_14  and  C_16 
REMARK   15  A    between atoms: C_16  and  C_18 
ROOT
HETATM    1  O   UNL     1      40.789   9.838 -16.299  1.00  0.00    -0.776 OA
HETATM    2  H   UNL     1      40.818   9.548 -15.376  1.00  0.00     0.167 HD
ENDROOT
BRANCH   1   3
HETATM    3  C   UNL     1      40.551   8.967 -17.303  1.00  0.00     0.139 C 
HETATM    4  O   UNL     1      41.132   9.100 -18.371  1.00  0.00    -0.650 OA
BRANCH   3   5
HETATM    5  C   UNL     1      39.571   7.845 -17.080  1.00  0.00     0.110 C 
BRANCH   5   6
HETATM    6  C   UNL     1      38.638   8.088 -15.884  1.00  0.00     0.010 C 
BRANCH   6   7
HETATM    7  C   UNL     1      38.877   7.050 -14.781  1.00  0.00     0.001 C 
BRANCH   7   8
HETATM    8  C   UNL     1      39.856   7.583 -13.728  1.00  0.00     0.000 C 
BRANCH   8   9
HETATM    9  C   UNL     1      39.355   7.285 -12.310  1.00  0.00     0.000 C 
BRANCH   9  10
HETATM   10  C   UNL     1      38.351   8.347 -11.847  1.00  0.00     0.000 C 
BRANCH  10  11
HETATM   11  C   UNL     1      37.916   8.099 -10.397  1.00  0.00     0.000 C 
BRANCH  11  12
HETATM   12  C   UNL     1      38.791   7.028  -9.735  1.00  0.00     0.000 C 
BRANCH  12  13
HETATM   13  C   UNL     1      39.577   7.611  -8.555  1.00  0.00     0.000 C 
BRANCH  13  14
HETATM   14  C   UNL     1      40.892   8.242  -9.028  1.00  0.00     0.000 C 
BRANCH  14  15
HETATM   15  C   UNL     1      40.733   9.752  -9.240  1.00  0.00     0.000 C 
BRANCH  15  16
HETATM   16  C   UNL     1      41.450  10.206 -10.517  1.00  0.00     0.000 C 
BRANCH  16  17
HETATM   17  C   UNL     1      40.623  11.257 -11.268  1.00  0.00    -0.000 C 
BRANCH  17  18
HETATM   18  C   UNL     1      40.713  11.048 -12.784  1.00  0.00    -0.005 C 
HETATM   19  C   UNL     1      42.162  10.878 -13.231  1.00  0.00     0.005 C 
ENDBRANCH  17  18
ENDBRANCH  16  17
ENDBRANCH  15  16
ENDBRANCH  14  15
ENDBRANCH  13  14
ENDBRANCH  12  13
ENDBRANCH  11  12
ENDBRANCH  10  11
ENDBRANCH   9  10
ENDBRANCH   8   9
ENDBRANCH   7   8
ENDBRANCH   6   7
ENDBRANCH   5   6
ENDBRANCH   3   5
ENDBRANCH   1   3
TORSDOF 15
ENDMDL
MODEL 6
REMARK VINA RESULT:      -4.6      4.799      8.824
REMARK  15 active torsions:
REMARK  status: ('A' for Active; 'I' for Inactive)
REMARK    1  A    between atoms: O_1  and  C_18 
REMARK    2  A    between atoms: C_3  and  C_4 
REMARK    3  A    between atoms: C_3  and  C_5 
REMARK    4  A    between atoms: C_4  and  C_6 
REMARK    5  A    between atoms: C_5  and  C_7 
REMARK    6  A    between atoms: C_6  and  C_8 
REMARK    7  A    between atoms: C_7  and  C_9 
REMARK    8  A    between atoms: C_8  and  C_10 
REMARK    9  A    between atoms: C_9  and  C_11 
REMARK   10  A    between atoms: C_10  and  C_12 
REMARK   11  A    between atoms: C_11  and  C_13 
REMARK   12  A    between atoms: C_12  and  C_14 
REMARK   13  A    between atoms: C_13  and  C_15 
REMARK   14  A    between atoms: C_14  and  C_16 
REMARK   15  A    between atoms: C_16  and  C_18 
ROOT
HETATM    1  O   UNL     1      38.624   6.194 -14.961  1.00  0.00    -0.776 OA
HETATM    2  H   UNL     1      38.801   6.051 -15.902  1.00  0.00     0.167 HD
ENDROOT
BRANCH   1   3
HETATM    3  C   UNL     1      39.111   7.271 -14.309  1.00  0.00     0.139 C 
HETATM    4  O   UNL     1      39.422   7.178 -13.130  1.00  0.00    -0.650 OA
BRANCH   3   5
HETATM    5  C   UNL     1      39.260   8.571 -15.056  1.00  0.00     0.110 C 
BRANCH   5   6
HETATM    6  C   UNL     1      38.071   8.876 -15.980  1.00  0.00     0.010 C 
BRANCH   6   7
HETATM    7  C   UNL     1      38.400   8.519 -17.434  1.00  0.00     0.001 C 
BRANCH   7   8
HETATM    8  C   UNL     1      39.915   8.526 -17.674  1.00  0.00     0.000 C 
BRANCH   8   9
HETATM    9  C   UNL     1      40.279   7.711 -18.921  1.00  0.00     0.000 C 
BRANCH   9  10
HETATM   10  C   UNL     1      39.020   7.196 -19.628  1.00  0.00     0.000 C 
BRANCH  10  11
HETATM   11  C   UNL     1      39.200   7.211 -21.151  1.00  0.00     0.000 C 
BRANCH  11  12
HETATM   12  C   UNL     1      38.577   8.468 -21.768  1.00  0.00     0.000 C 
BRANCH  12  13
HETATM   13  C   UNL     1      37.428   8.996 -20.901  1.00  0.00     0.000 C 
BRANCH  13  14
HETATM   14  C   UNL     1      37.638  10.474 -20.550  1.00  0.00     0.000 C 
BRANCH  14  15
HETATM   15  C   UNL     1      39.122  10.853 -20.628  1.00  0.00     0.000 C 
BRANCH  15  16
HETATM   16  C   UNL     1      39.494  11.845 -19.520  1.00  0.00     0.000 C 
BRANCH  16  17
HETATM   17  C   UNL     1      38.302  12.107 -18.592  1.00  0.00    -0.000 C 
BRANCH  17  18
HETATM   18  C   UNL     1      38.760  12.258 -17.137  1.00  0.00    -0.005 C 
HETATM   19  C   UNL     1      40.280  12.180 -17.027  1.00  0.00     0.005 C 
ENDBRANCH  17  18
ENDBRANCH  16  17
ENDBRANCH  15  16
ENDBRANCH  14  15
ENDBRANCH  13  14
ENDBRANCH  12  13
ENDBRANCH  11  12
ENDBRANCH  10  11
ENDBRANCH   9  10
ENDBRANCH   8   9
ENDBRANCH   7   8
ENDBRANCH   6   7
ENDBRANCH   5   6
ENDBRANCH   3   5
ENDBRANCH   1   3
TORSDOF 15
ENDMDL
MODEL 7
REMARK VINA RESULT:      -4.6      4.084     10.387
REMARK  15 active torsions:
REMARK  status: ('A' for Active; 'I' for Inactive)
REMARK    1  A    between atoms: O_1  and  C_18 
REMARK    2  A    between atoms: C_3  and  C_4 
REMARK    3  A    between atoms: C_3  and  C_5 
REMARK    4  A    between atoms: C_4  and  C_6 
REMARK    5  A    between atoms: C_5  and  C_7 
REMARK    6  A    between atoms: C_6  and  C_8 
REMARK    7  A    between atoms: C_7  and  C_9 
REMARK    8  A    between atoms: C_8  and  C_10 
REMARK    9  A    between atoms: C_9  and  C_11 
REMARK   10  A    between atoms: C_10  and  C_12 
REMARK   11  A    between atoms: C_11  and  C_13 
REMARK   12  A    between atoms: C_12  and  C_14 
REMARK   13  A    between atoms: C_13  and  C_15 
REMARK   14  A    between atoms: C_14  and  C_16 
REMARK   15  A    between atoms: C_16  and  C_18 
ROOT
HETATM    1  O   UNL     1      38.852   6.335 -10.101  1.00  0.00    -0.776 OA
HETATM    2  H   UNL     1      38.454   5.830  -9.378  1.00  0.00     0.167 HD
ENDROOT
BRANCH   1   3
HETATM    3  C   UNL     1      39.601   7.433  -9.865  1.00  0.00     0.139 C 
HETATM    4  O   UNL     1      39.972   7.681  -8.726  1.00  0.00    -0.650 OA
BRANCH   3   5
HETATM    5  C   UNL     1      39.965   8.331 -11.018  1.00  0.00     0.110 C 
BRANCH   5   6
HETATM    6  C   UNL     1      39.411   7.839 -12.364  1.00  0.00     0.010 C 
BRANCH   6   7
HETATM    7  C   UNL     1      38.414   8.846 -12.949  1.00  0.00     0.001 C 
BRANCH   7   8
HETATM    8  C   UNL     1      38.030   8.469 -14.386  1.00  0.00     0.000 C 
BRANCH   8   9
HETATM    9  C   UNL     1      39.274   8.348 -15.274  1.00  0.00     0.000 C 
BRANCH   9  10
HETATM   10  C   UNL     1      39.306   6.995 -15.995  1.00  0.00     0.000 C 
BRANCH  10  11
HETATM   11  C   UNL     1      39.415   7.182 -17.513  1.00  0.00     0.000 C 
BRANCH  11  12
HETATM   12  C   UNL     1      38.719   8.473 -17.960  1.00  0.00     0.000 C 
BRANCH  12  13
HETATM   13  C   UNL     1      38.561   8.514 -19.484  1.00  0.00     0.000 C 
BRANCH  13  14
HETATM   14  C   UNL     1      38.507   7.097 -20.069  1.00  0.00     0.000 C 
BRANCH  14  15
HETATM   15  C   UNL     1      39.398   6.981 -21.312  1.00  0.00     0.000 C 
BRANCH  15  16
HETATM   16  C   UNL     1      39.860   8.363 -21.789  1.00  0.00     0.000 C 
BRANCH  16  17
HETATM   17  C   UNL     1      39.231   8.716 -23.142  1.00  0.00    -0.000 C 
BRANCH  17  18
HETATM   18  C   UNL     1      37.881   9.418 -22.954  1.00  0.00    -0.005 C 
HETATM   19  C   UNL     1      38.069  10.852 -22.466  1.00  0.00     0.005 C 
ENDBRANCH  17  18
ENDBRANCH  16  17
ENDBRANCH  15  16
ENDBRANCH  14  15
ENDBRANCH  13  14
ENDBRANCH  12  13
ENDBRANCH  11  12
ENDBRANCH  10  11
ENDBRANCH   9  10
ENDBRANCH   8   9
ENDBRANCH   7   8
ENDBRANCH   6   7
ENDBRANCH   5   6
ENDBRANCH   3   5
ENDBRANCH   1   3
TORSDOF 15
ENDMDL
MODEL 8
REMARK VINA RESULT:      -4.6     25.937     27.378
REMARK  15 active torsions:
REMARK  status: ('A' for Active; 'I' for Inactive)
REMARK    1  A    between atoms: O_1  and  C_18 
REMARK    2  A    between atoms: C_3  and  C_4 
REMARK    3  A    between atoms: C_3  and  C_5 
REMARK    4  A    between atoms: C_4  and  C_6 
REMARK    5  A    between atoms: C_5  and  C_7 
REMARK    6  A    between atoms: C_6  and  C_8 
REMARK    7  A    between atoms: C_7  and  C_9 
REMARK    8  A    between atoms: C_8  and  C_10 
REMARK    9  A    between atoms: C_9  and  C_11 
REMARK   10  A    between atoms: C_10  and  C_12 
REMARK   11  A    between atoms: C_11  and  C_13 
REMARK   12  A    between atoms: C_12  and  C_14 
REMARK   13  A    between atoms: C_13  and  C_15 
REMARK   14  A    between atoms: C_14  and  C_16 
REMARK   15  A    between atoms: C_16  and  C_18 
ROOT
HETATM    1  O   UNL     1      32.726 -20.272  -9.356  1.00  0.00    -0.776 OA
HETATM    2  H   UNL     1      33.465 -20.419  -9.962  1.00  0.00     0.167 HD
ENDROOT
BRANCH   1   3
HETATM    3  C   UNL     1      31.451 -20.522  -9.725  1.00  0.00     0.139 C 
HETATM    4  O   UNL     1      31.208 -20.866 -10.873  1.00  0.00    -0.650 OA
BRANCH   3   5
HETATM    5  C   UNL     1      30.352 -20.369  -8.706  1.00  0.00     0.110 C 
BRANCH   5   6
HETATM    6  C   UNL     1      30.877 -20.057  -7.296  1.00  0.00     0.010 C 
BRANCH   6   7
HETATM    7  C   UNL     1      30.327 -18.719  -6.789  1.00  0.00     0.001 C 
BRANCH   7   8
HETATM    8  C   UNL     1      30.186 -17.712  -7.937  1.00  0.00     0.000 C 
BRANCH   8   9
HETATM    9  C   UNL     1      31.416 -16.800  -8.025  1.00  0.00     0.000 C 
BRANCH   9  10
HETATM   10  C   UNL     1      31.676 -16.364  -9.471  1.00  0.00     0.000 C 
BRANCH  10  11
HETATM   11  C   UNL     1      30.726 -17.079 -10.440  1.00  0.00     0.000 C 
BRANCH  11  12
HETATM   12  C   UNL     1      31.101 -16.785 -11.897  1.00  0.00     0.000 C 
BRANCH  12  13
HETATM   13  C   UNL     1      29.899 -16.238 -12.676  1.00  0.00     0.000 C 
BRANCH  13  14
HETATM   14  C   UNL     1      29.965 -14.710 -12.788  1.00  0.00     0.000 C 
BRANCH  14  15
HETATM   15  C   UNL     1      28.567 -14.089 -12.682  1.00  0.00     0.000 C 
BRANCH  15  16
HETATM   16  C   UNL     1      27.948 -14.359 -11.306  1.00  0.00     0.000 C 
BRANCH  16  17
HETATM   17  C   UNL     1      28.828 -13.791 -10.186  1.00  0.00    -0.000 C 
BRANCH  17  18
HETATM   18  C   UNL     1      28.535 -14.485  -8.851  1.00  0.00    -0.005 C 
HETATM   19  C   UNL     1      29.085 -13.678  -7.678  1.00  0.00     0.005 C 
ENDBRANCH  17  18
ENDBRANCH  16  17
ENDBRANCH  15  16
ENDBRANCH  14  15
ENDBRANCH  13  14
ENDBRANCH  12  13
ENDBRANCH  11  12
ENDBRANCH  10  11
ENDBRANCH   9  10
ENDBRANCH   8   9
ENDBRANCH   7   8
ENDBRANCH   6   7
ENDBRANCH   5   6
ENDBRANCH   3   5
ENDBRANCH   1   3
TORSDOF 15
ENDMDL
MODEL 9
REMARK VINA RESULT:      -4.5      4.492     10.574
REMARK  15 active torsions:
REMARK  status: ('A' for Active; 'I' for Inactive)
REMARK    1  A    between atoms: O_1  and  C_18 
REMARK    2  A    between atoms: C_3  and  C_4 
REMARK    3  A    between atoms: C_3  and  C_5 
REMARK    4  A    between atoms: C_4  and  C_6 
REMARK    5  A    between atoms: C_5  and  C_7 
REMARK    6  A    between atoms: C_6  and  C_8 
REMARK    7  A    between atoms: C_7  and  C_9 
REMARK    8  A    between atoms: C_8  and  C_10 
REMARK    9  A    between atoms: C_9  and  C_11 
REMARK   10  A    between atoms: C_10  and  C_12 
REMARK   11  A    between atoms: C_11  and  C_13 
REMARK   12  A    between atoms: C_12  and  C_14 
REMARK   13  A    between atoms: C_13  and  C_15 
REMARK   14  A    between atoms: C_14  and  C_16 
REMARK   15  A    between atoms: C_16  and  C_18 
ROOT
HETATM    1  O   UNL     1      40.144   8.856  -7.337  1.00  0.00    -0.776 OA
HETATM    2  H   UNL     1      41.108   8.940  -7.325  1.00  0.00     0.167 HD
ENDROOT
BRANCH   1   3
HETATM    3  C   UNL     1      39.530   7.898  -8.062  1.00  0.00     0.139 C 
HETATM    4  O   UNL     1      39.563   6.735  -7.684  1.00  0.00    -0.650 OA
BRANCH   3   5
HETATM    5  C   UNL     1      38.812   8.287  -9.329  1.00  0.00     0.110 C 
BRANCH   5   6
HETATM    6  C   UNL     1      38.863   7.197 -10.410  1.00  0.00     0.010 C 
BRANCH   6   7
HETATM    7  C   UNL     1      38.592   7.787 -11.799  1.00  0.00     0.001 C 
BRANCH   7   8
HETATM    8  C   UNL     1      39.874   8.362 -12.412  1.00  0.00     0.000 C 
BRANCH   8   9
HETATM    9  C   UNL     1      40.216   7.660 -13.732  1.00  0.00     0.000 C 
BRANCH   9  10
HETATM   10  C   UNL     1      38.944   7.252 -14.484  1.00  0.00     0.000 C 
BRANCH  10  11
HETATM   11  C   UNL     1      39.256   6.902 -15.943  1.00  0.00     0.000 C 
BRANCH  11  12
HETATM   12  C   UNL     1      39.010   8.103 -16.864  1.00  0.00     0.000 C 
BRANCH  12  13
HETATM   13  C   UNL     1      40.305   8.538 -17.560  1.00  0.00     0.000 C 
BRANCH  13  14
HETATM   14  C   UNL     1      40.170   8.436 -19.085  1.00  0.00     0.000 C 
BRANCH  14  15
HETATM   15  C   UNL     1      38.990   7.538 -19.474  1.00  0.00     0.000 C 
BRANCH  15  16
HETATM   16  C   UNL     1      39.186   6.950 -20.876  1.00  0.00     0.000 C 
BRANCH  16  17
HETATM   17  C   UNL     1      39.695   8.016 -21.854  1.00  0.00    -0.000 C 
BRANCH  17  18
HETATM   18  C   UNL     1      39.676   7.494 -23.295  1.00  0.00    -0.005 C 
HETATM   19  C   UNL     1      38.475   8.039 -24.063  1.00  0.00     0.005 C 
ENDBRANCH  17  18
ENDBRANCH  16  17
ENDBRANCH  15  16
ENDBRANCH  14  15
ENDBRANCH  13  14
ENDBRANCH  12  13
ENDBRANCH  11  12
ENDBRANCH  10  11
ENDBRANCH   9  10
ENDBRANCH   8   9
ENDBRANCH   7   8
ENDBRANCH   6   7
ENDBRANCH   5   6
ENDBRANCH   3   5
ENDBRANCH   1   3
TORSDOF 15
ENDMDL
MODEL 10
REMARK VINA RESULT:      -4.5      1.431      2.406
REMARK  15 active torsions:
REMARK  status: ('A' for Active; 'I' for Inactive)
REMARK    1  A    between atoms: O_1  and  C_18 
REMARK    2  A    between atoms: C_3  and  C_4 
REMARK    3  A    between atoms: C_3  and  C_5 
REMARK    4  A    between atoms: C_4  and  C_6 
REMARK    5  A    between atoms: C_5  and  C_7 
REMARK    6  A    between atoms: C_6  and  C_8 
REMARK    7  A    between atoms: C_7  and  C_9 
REMARK    8  A    between atoms: C_8  and  C_10 
REMARK    9  A    between atoms: C_9  and  C_11 
REMARK   10  A    between atoms: C_10  and  C_12 
REMARK   11  A    between atoms: C_11  and  C_13 
REMARK   12  A    between atoms: C_12  and  C_14 
REMARK   13  A    between atoms: C_13  and  C_15 
REMARK   14  A    between atoms: C_14  and  C_16 
REMARK   15  A    between atoms: C_16  and  C_18 
ROOT
HETATM    1  O   UNL     1      38.464   6.284 -20.049  1.00  0.00    -0.776 OA
HETATM    2  H   UNL     1      37.826   6.563 -19.378  1.00  0.00     0.167 HD
ENDROOT
BRANCH   1   3
HETATM    3  C   UNL     1      39.527   7.052 -20.372  1.00  0.00     0.139 C 
HETATM    4  O   UNL     1      39.902   7.110 -21.535  1.00  0.00    -0.650 OA
BRANCH   3   5
HETATM    5  C   UNL     1      40.227   7.825 -19.285  1.00  0.00     0.110 C 
BRANCH   5   6
HETATM    6  C   UNL     1      39.329   8.106 -18.070  1.00  0.00     0.010 C 
BRANCH   6   7
HETATM    7  C   UNL     1      39.570   7.078 -16.959  1.00  0.00     0.001 C 
BRANCH   7   8
HETATM    8  C   UNL     1      38.699   7.379 -15.733  1.00  0.00     0.000 C 
BRANCH   8   9
HETATM    9  C   UNL     1      39.514   8.077 -14.637  1.00  0.00     0.000 C 
BRANCH   9  10
HETATM   10  C   UNL     1      38.750   8.091 -13.309  1.00  0.00     0.000 C 
BRANCH  10  11
HETATM   11  C   UNL     1      39.713   8.009 -12.119  1.00  0.00     0.000 C 
BRANCH  11  12
HETATM   12  C   UNL     1      39.282   6.917 -11.134  1.00  0.00     0.000 C 
BRANCH  12  13
HETATM   13  C   UNL     1      38.542   7.518  -9.934  1.00  0.00     0.000 C 
BRANCH  13  14
HETATM   14  C   UNL     1      39.241   7.155  -8.618  1.00  0.00     0.000 C 
BRANCH  14  15
HETATM   15  C   UNL     1      39.068   8.269  -7.578  1.00  0.00     0.000 C 
BRANCH  15  16
HETATM   16  C   UNL     1      40.364   8.489  -6.788  1.00  0.00     0.000 C 
BRANCH  16  17
HETATM   17  C   UNL     1      40.895   9.914  -6.990  1.00  0.00    -0.000 C 
BRANCH  17  18
HETATM   18  C   UNL     1      41.050  10.237  -8.480  1.00  0.00    -0.005 C 
HETATM   19  C   UNL     1      42.489  10.620  -8.814  1.00  0.00     0.005 C 
ENDBRANCH  17  18
ENDBRANCH  16  17
ENDBRANCH  15  16
ENDBRANCH  14  15
ENDBRANCH  13  14
ENDBRANCH  12  13
ENDBRANCH  11  12
ENDBRANCH  10  11
ENDBRANCH   9  10
ENDBRANCH   8   9
ENDBRANCH   7   8
ENDBRANCH   6   7
ENDBRANCH   5   6
ENDBRANCH   3   5
ENDBRANCH   1   3
TORSDOF 15
ENDMDL
MODEL 11
REMARK VINA RESULT:      -4.5      4.765      9.745
REMARK  15 active torsions:
REMARK  status: ('A' for Active; 'I' for Inactive)
REMARK    1  A    between atoms: O_1  and  C_18 
REMARK    2  A    between atoms: C_3  and  C_4 
REMARK    3  A    between atoms: C_3  and  C_5 
REMARK    4  A    between atoms: C_4  and  C_6 
REMARK    5  A    between atoms: C_5  and  C_7 
REMARK    6  A    between atoms: C_6  and  C_8 
REMARK    7  A    between atoms: C_7  and  C_9 
REMARK    8  A    between atoms: C_8  and  C_10 
REMARK    9  A    between atoms: C_9  and  C_11 
REMARK   10  A    between atoms: C_10  and  C_12 
REMARK   11  A    between atoms: C_11  and  C_13 
REMARK   12  A    between atoms: C_12  and  C_14 
REMARK   13  A    between atoms: C_13  and  C_15 
REMARK   14  A    between atoms: C_14  and  C_16 
REMARK   15  A    between atoms: C_16  and  C_18 
ROOT
HETATM    1  O   UNL     1      39.521   6.353  -6.143  1.00  0.00    -0.776 OA
HETATM    2  H   UNL     1      40.309   5.817  -6.307  1.00  0.00     0.167 HD
ENDROOT
BRANCH   1   3
HETATM    3  C   UNL     1      39.244   7.444  -6.889  1.00  0.00     0.139 C 
HETATM    4  O   UNL     1      38.877   8.475  -6.344  1.00  0.00    -0.650 OA
BRANCH   3   5
HETATM    5  C   UNL     1      39.398   7.364  -8.386  1.00  0.00     0.110 C 
BRANCH   5   6
HETATM    6  C   UNL     1      38.565   8.416  -9.135  1.00  0.00     0.010 C 
BRANCH   6   7
HETATM    7  C   UNL     1      38.305   7.982 -10.582  1.00  0.00     0.001 C 
BRANCH   7   8
HETATM    8  C   UNL     1      39.600   7.517 -11.258  1.00  0.00     0.000 C 
BRANCH   8   9
HETATM    9  C   UNL     1      39.362   7.189 -12.737  1.00  0.00     0.000 C 
BRANCH   9  10
HETATM   10  C   UNL     1      38.639   8.340 -13.446  1.00  0.00     0.000 C 
BRANCH  10  11
HETATM   11  C   UNL     1      39.615   9.469 -13.798  1.00  0.00     0.000 C 
BRANCH  11  12
HETATM   12  C   UNL     1      39.047  10.362 -14.907  1.00  0.00     0.000 C 
BRANCH  12  13
HETATM   13  C   UNL     1      38.416   9.521 -16.023  1.00  0.00     0.000 C 
BRANCH  13  14
HETATM   14  C   UNL     1      39.479   9.044 -17.020  1.00  0.00     0.000 C 
BRANCH  14  15
HETATM   15  C   UNL     1      39.383   7.529 -17.243  1.00  0.00     0.000 C 
BRANCH  15  16
HETATM   16  C   UNL     1      39.390   7.192 -18.738  1.00  0.00     0.000 C 
BRANCH  16  17
HETATM   17  C   UNL     1      39.073   8.432 -19.583  1.00  0.00    -0.000 C 
BRANCH  17  18
HETATM   18  C   UNL     1      37.614   8.419 -20.052  1.00  0.00    -0.005 C 
HETATM   19  C   UNL     1      37.373   9.471 -21.132  1.00  0.00     0.005 C 
ENDBRANCH  17  18
ENDBRANCH  16  17
ENDBRANCH  15  16
ENDBRANCH  14  15
ENDBRANCH  13  14
ENDBRANCH  12  13
ENDBRANCH  11  12
ENDBRANCH  10  11
ENDBRANCH   9  10
ENDBRANCH   8   9
ENDBRANCH   7   8
ENDBRANCH   6   7
ENDBRANCH   5   6
ENDBRANCH   3   5
ENDBRANCH   1   3
TORSDOF 15
ENDMDL
MODEL 12
REMARK VINA RESULT:      -4.5      4.280      9.738
REMARK  15 active torsions:
REMARK  status: ('A' for Active; 'I' for Inactive)
REMARK    1  A    between atoms: O_1  and  C_18 
REMARK    2  A    between atoms: C_3  and  C_4 
REMARK    3  A    between atoms: C_3  and  C_5 
REMARK    4  A    between atoms: C_4  and  C_6 
REMARK    5  A    between atoms: C_5  and  C_7 
REMARK    6  A    between atoms: C_6  and  C_8 
REMARK    7  A    between atoms: C_7  and  C_9 
REMARK    8  A    between atoms: C_8  and  C_10 
REMARK    9  A    between atoms: C_9  and  C_11 
REMARK   10  A    between atoms: C_10  and  C_12 
REMARK   11  A    between atoms: C_11  and  C_13 
REMARK   12  A    between atoms: C_12  and  C_14 
REMARK   13  A    between atoms: C_13  and  C_15 
REMARK   14  A    between atoms: C_14  and  C_16 
REMARK   15  A    between atoms: C_16  and  C_18 
ROOT
HETATM    1  O   UNL     1      38.144   9.033  -7.654  1.00  0.00    -0.776 OA
HETATM    2  H   UNL     1      37.381   9.525  -7.988  1.00  0.00     0.167 HD
ENDROOT
BRANCH   1   3
HETATM    3  C   UNL     1      38.869   8.227  -8.460  1.00  0.00     0.139 C 
HETATM    4  O   UNL     1      39.284   7.159  -8.035  1.00  0.00    -0.650 OA
BRANCH   3   5
HETATM    5  C   UNL     1      39.149   8.669  -9.873  1.00  0.00     0.110 C 
BRANCH   5   6
HETATM    6  C   UNL     1      38.440   7.804 -10.927  1.00  0.00     0.010 C 
BRANCH   6   7
HETATM    7  C   UNL     1      39.450   7.185 -11.899  1.00  0.00     0.001 C 
BRANCH   7   8
HETATM    8  C   UNL     1      40.281   8.271 -12.594  1.00  0.00     0.000 C 
BRANCH   8   9
HETATM    9  C   UNL     1      40.248   8.099 -14.118  1.00  0.00     0.000 C 
BRANCH   9  10
HETATM   10  C   UNL     1      39.121   7.149 -14.540  1.00  0.00     0.000 C 
BRANCH  10  11
HETATM   11  C   UNL     1      38.054   7.890 -15.354  1.00  0.00     0.000 C 
BRANCH  11  12
HETATM   12  C   UNL     1      38.607   8.333 -16.714  1.00  0.00     0.000 C 
BRANCH  12  13
HETATM   13  C   UNL     1      39.326   7.177 -17.419  1.00  0.00     0.000 C 
BRANCH  13  14
HETATM   14  C   UNL     1      39.747   7.574 -18.839  1.00  0.00     0.000 C 
BRANCH  14  15
HETATM   15  C   UNL     1      38.734   7.070 -19.874  1.00  0.00     0.000 C 
BRANCH  15  16
HETATM   16  C   UNL     1      38.505   8.114 -20.973  1.00  0.00     0.000 C 
BRANCH  16  17
HETATM   17  C   UNL     1      37.198   8.881 -20.740  1.00  0.00    -0.000 C 
BRANCH  17  18
HETATM   18  C   UNL     1      37.454  10.390 -20.658  1.00  0.00    -0.005 C 
HETATM   19  C   UNL     1      37.844  10.807 -19.243  1.00  0.00     0.005 C 
ENDBRANCH  17  18
ENDBRANCH  16  17
ENDBRANCH  15  16
ENDBRANCH  14  15
ENDBRANCH  13  14
ENDBRANCH  12  13
ENDBRANCH  11  12
ENDBRANCH  10  11
ENDBRANCH   9  10
ENDBRANCH   8   9
ENDBRANCH   7   8
ENDBRANCH   6   7
ENDBRANCH   5   6
ENDBRANCH   3   5
ENDBRANCH   1   3
TORSDOF 15
ENDMDL
MODEL 13
REMARK VINA RESULT:      -4.5     26.177     27.795
REMARK  15 active torsions:
REMARK  status: ('A' for Active; 'I' for Inactive)
REMARK    1  A    between atoms: O_1  and  C_18 
REMARK    2  A    between atoms: C_3  and  C_4 
REMARK    3  A    between atoms: C_3  and  C_5 
REMARK    4  A    between atoms: C_4  and  C_6 
REMARK    5  A    between atoms: C_5  and  C_7 
REMARK    6  A    between atoms: C_6  and  C_8 
REMARK    7  A    between atoms: C_7  and  C_9 
REMARK    8  A    between atoms: C_8  and  C_10 
REMARK    9  A    between atoms: C_9  and  C_11 
REMARK   10  A    between atoms: C_10  and  C_12 
REMARK   11  A    between atoms: C_11  and  C_13 
REMARK   12  A    between atoms: C_12  and  C_14 
REMARK   13  A    between atoms: C_13  and  C_15 
REMARK   14  A    between atoms: C_14  and  C_16 
REMARK   15  A    between atoms: C_16  and  C_18 
ROOT
HETATM    1  O   UNL     1      32.665 -20.265  -9.306  1.00  0.00    -0.776 OA
HETATM    2  H   UNL     1      33.422 -20.504  -9.858  1.00  0.00     0.167 HD
ENDROOT
BRANCH   1   3
HETATM    3  C   UNL     1      31.398 -20.493  -9.712  1.00  0.00     0.139 C 
HETATM    4  O   UNL     1      31.194 -21.050 -10.781  1.00  0.00    -0.650 OA
BRANCH   3   5
HETATM    5  C   UNL     1      30.258 -20.054  -8.829  1.00  0.00     0.110 C 
BRANCH   5   6
HETATM    6  C   UNL     1      30.724 -19.322  -7.561  1.00  0.00     0.010 C 
BRANCH   6   7
HETATM    7  C   UNL     1      30.176 -17.891  -7.520  1.00  0.00     0.001 C 
BRANCH   7   8
HETATM    8  C   UNL     1      30.014 -17.323  -8.936  1.00  0.00     0.000 C 
BRANCH   8   9
HETATM    9  C   UNL     1      31.296 -16.622  -9.398  1.00  0.00     0.000 C 
BRANCH   9  10
HETATM   10  C   UNL     1      31.377 -16.576 -10.928  1.00  0.00     0.000 C 
BRANCH  10  11
HETATM   11  C   UNL     1      30.187 -17.305 -11.564  1.00  0.00     0.000 C 
BRANCH  11  12
HETATM   12  C   UNL     1      30.657 -18.311 -12.621  1.00  0.00     0.000 C 
BRANCH  12  13
HETATM   13  C   UNL     1      29.920 -18.100 -13.948  1.00  0.00     0.000 C 
BRANCH  13  14
HETATM   14  C   UNL     1      30.804 -17.355 -14.956  1.00  0.00     0.000 C 
BRANCH  14  15
HETATM   15  C   UNL     1      29.962 -16.446 -15.859  1.00  0.00     0.000 C 
BRANCH  15  16
HETATM   16  C   UNL     1      29.168 -15.430 -15.030  1.00  0.00     0.000 C 
BRANCH  16  17
HETATM   17  C   UNL     1      30.099 -14.596 -14.142  1.00  0.00    -0.000 C 
BRANCH  17  18
HETATM   18  C   UNL     1      29.330 -13.973 -12.971  1.00  0.00    -0.005 C 
HETATM   19  C   UNL     1      30.078 -12.772 -12.398  1.00  0.00     0.005 C 
ENDBRANCH  17  18
ENDBRANCH  16  17
ENDBRANCH  15  16
ENDBRANCH  14  15
ENDBRANCH  13  14
ENDBRANCH  12  13
ENDBRANCH  11  12
ENDBRANCH  10  11
ENDBRANCH   9  10
ENDBRANCH   8   9
ENDBRANCH   7   8
ENDBRANCH   6   7
ENDBRANCH   5   6
ENDBRANCH   3   5
ENDBRANCH   1   3
TORSDOF 15
ENDMDL
MODEL 14
REMARK VINA RESULT:      -4.5      3.981      6.704
REMARK  15 active torsions:
REMARK  status: ('A' for Active; 'I' for Inactive)
REMARK    1  A    between atoms: O_1  and  C_18 
REMARK    2  A    between atoms: C_3  and  C_4 
REMARK    3  A    between atoms: C_3  and  C_5 
REMARK    4  A    between atoms: C_4  and  C_6 
REMARK    5  A    between atoms: C_5  and  C_7 
REMARK    6  A    between atoms: C_6  and  C_8 
REMARK    7  A    between atoms: C_7  and  C_9 
REMARK    8  A    between atoms: C_8  and  C_10 
REMARK    9  A    between atoms: C_9  and  C_11 
REMARK   10  A    between atoms: C_10  and  C_12 
REMARK   11  A    between atoms: C_11  and  C_13 
REMARK   12  A    between atoms: C_12  and  C_14 
REMARK   13  A    between atoms: C_13  and  C_15 
REMARK   14  A    between atoms: C_14  and  C_16 
REMARK   15  A    between atoms: C_16  and  C_18 
ROOT
HETATM    1  O   UNL     1      39.148   6.100 -10.609  1.00  0.00    -0.776 OA
HETATM    2  H   UNL     1      38.880   5.565 -11.370  1.00  0.00     0.167 HD
ENDROOT
BRANCH   1   3
HETATM    3  C   UNL     1      38.852   7.415 -10.534  1.00  0.00     0.139 C 
HETATM    4  O   UNL     1      38.136   7.825  -9.632  1.00  0.00    -0.650 OA
BRANCH   3   5
HETATM    5  C   UNL     1      39.417   8.351 -11.570  1.00  0.00     0.110 C 
BRANCH   5   6
HETATM    6  C   UNL     1      38.641   8.323 -12.896  1.00  0.00     0.010 C 
BRANCH   6   7
HETATM    7  C   UNL     1      39.223   7.274 -13.851  1.00  0.00     0.001 C 
BRANCH   7   8
HETATM    8  C   UNL     1      38.384   7.170 -15.131  1.00  0.00     0.000 C 
BRANCH   8   9
HETATM    9  C   UNL     1      37.666   8.492 -15.428  1.00  0.00     0.000 C 
BRANCH   9  10
HETATM   10  C   UNL     1      37.952   8.964 -16.858  1.00  0.00     0.000 C 
BRANCH  10  11
HETATM   11  C   UNL     1      39.115   8.177 -17.475  1.00  0.00     0.000 C 
BRANCH  11  12
HETATM   12  C   UNL     1      40.427   8.962 -17.375  1.00  0.00     0.000 C 
BRANCH  12  13
HETATM   13  C   UNL     1      40.161  10.450 -17.121  1.00  0.00     0.000 C 
BRANCH  13  14
HETATM   14  C   UNL     1      41.023  10.974 -15.966  1.00  0.00     0.000 C 
BRANCH  14  15
HETATM   15  C   UNL     1      41.303   9.868 -14.942  1.00  0.00     0.000 C 
BRANCH  15  16
HETATM   16  C   UNL     1      42.189  10.385 -13.803  1.00  0.00     0.000 C 
BRANCH  16  17
HETATM   17  C   UNL     1      41.393  11.288 -12.853  1.00  0.00    -0.000 C 
BRANCH  17  18
HETATM   18  C   UNL     1      42.153  11.511 -11.540  1.00  0.00    -0.005 C 
HETATM   19  C   UNL     1      41.223  11.381 -10.337  1.00  0.00     0.005 C 
ENDBRANCH  17  18
ENDBRANCH  16  17
ENDBRANCH  15  16
ENDBRANCH  14  15
ENDBRANCH  13  14
ENDBRANCH  12  13
ENDBRANCH  11  12
ENDBRANCH  10  11
ENDBRANCH   9  10
ENDBRANCH   8   9
ENDBRANCH   7   8
ENDBRANCH   6   7
ENDBRANCH   5   6
ENDBRANCH   3   5
ENDBRANCH   1   3
TORSDOF 15
ENDMDL
MODEL 15
REMARK VINA RESULT:      -4.4      4.089      9.117
REMARK  15 active torsions:
REMARK  status: ('A' for Active; 'I' for Inactive)
REMARK    1  A    between atoms: O_1  and  C_18 
REMARK    2  A    between atoms: C_3  and  C_4 
REMARK    3  A    between atoms: C_3  and  C_5 
REMARK    4  A    between atoms: C_4  and  C_6 
REMARK    5  A    between atoms: C_5  and  C_7 
REMARK    6  A    between atoms: C_6  and  C_8 
REMARK    7  A    between atoms: C_7  and  C_9 
REMARK    8  A    between atoms: C_8  and  C_10 
REMARK    9  A    between atoms: C_9  and  C_11 
REMARK   10  A    between atoms: C_10  and  C_12 
REMARK   11  A    between atoms: C_11  and  C_13 
REMARK   12  A    between atoms: C_12  and  C_14 
REMARK   13  A    between atoms: C_13  and  C_15 
REMARK   14  A    between atoms: C_14  and  C_16 
REMARK   15  A    between atoms: C_16  and  C_18 
ROOT
HETATM    1  O   UNL     1      40.751   8.435  -8.843  1.00  0.00    -0.776 OA
HETATM    2  H   UNL     1      40.754   8.591  -9.798  1.00  0.00     0.167 HD
ENDROOT
BRANCH   1   3
HETATM    3  C   UNL     1      39.651   7.981  -8.207  1.00  0.00     0.139 C 
HETATM    4  O   UNL     1      39.505   6.781  -8.027  1.00  0.00    -0.650 OA
BRANCH   3   5
HETATM    5  C   UNL     1      38.622   8.973  -7.729  1.00  0.00     0.110 C 
BRANCH   5   6
HETATM    6  C   UNL     1      38.139   9.922  -8.837  1.00  0.00     0.010 C 
BRANCH   6   7
HETATM    7  C   UNL     1      37.536   9.138 -10.007  1.00  0.00     0.001 C 
BRANCH   7   8
HETATM    8  C   UNL     1      37.582   9.959 -11.302  1.00  0.00     0.000 C 
BRANCH   8   9
HETATM    9  C   UNL     1      37.999   9.086 -12.492  1.00  0.00     0.000 C 
BRANCH   9  10
HETATM   10  C   UNL     1      39.137   8.135 -12.105  1.00  0.00     0.000 C 
BRANCH  10  11
HETATM   11  C   UNL     1      39.650   7.364 -13.328  1.00  0.00     0.000 C 
BRANCH  11  12
HETATM   12  C   UNL     1      40.713   8.171 -14.082  1.00  0.00     0.000 C 
BRANCH  12  13
HETATM   13  C   UNL     1      40.288   8.419 -15.534  1.00  0.00     0.000 C 
BRANCH  13  14
HETATM   14  C   UNL     1      38.943   7.747 -15.836  1.00  0.00     0.000 C 
BRANCH  14  15
HETATM   15  C   UNL     1      37.991   8.715 -16.549  1.00  0.00     0.000 C 
BRANCH  15  16
HETATM   16  C   UNL     1      38.613   9.239 -17.849  1.00  0.00     0.000 C 
BRANCH  16  17
HETATM   17  C   UNL     1      38.620   8.154 -18.932  1.00  0.00    -0.000 C 
BRANCH  17  18
HETATM   18  C   UNL     1      39.789   8.354 -19.903  1.00  0.00    -0.005 C 
HETATM   19  C   UNL     1      41.111   8.487 -19.153  1.00  0.00     0.005 C 
ENDBRANCH  17  18
ENDBRANCH  16  17
ENDBRANCH  15  16
ENDBRANCH  14  15
ENDBRANCH  13  14
ENDBRANCH  12  13
ENDBRANCH  11  12
ENDBRANCH  10  11
ENDBRANCH   9  10
ENDBRANCH   8   9
ENDBRANCH   7   8
ENDBRANCH   6   7
ENDBRANCH   5   6
ENDBRANCH   3   5
ENDBRANCH   1   3
TORSDOF 15
ENDMDL
MODEL 16
REMARK VINA RESULT:      -4.4      1.846      3.115
REMARK  15 active torsions:
REMARK  status: ('A' for Active; 'I' for Inactive)
REMARK    1  A    between atoms: O_1  and  C_18 
REMARK    2  A    between atoms: C_3  and  C_4 
REMARK    3  A    between atoms: C_3  and  C_5 
REMARK    4  A    between atoms: C_4  and  C_6 
REMARK    5  A    between atoms: C_5  and  C_7 
REMARK    6  A    between atoms: C_6  and  C_8 
REMARK    7  A    between atoms: C_7  and  C_9 
REMARK    8  A    between atoms: C_8  and  C_10 
REMARK    9  A    between atoms: C_9  and  C_11 
REMARK   10  A    between atoms: C_10  and  C_12 
REMARK   11  A    between atoms: C_11  and  C_13 
REMARK   12  A    between atoms: C_12  and  C_14 
REMARK   13  A    between atoms: C_13  and  C_15 
REMARK   14  A    between atoms: C_14  and  C_16 
REMARK   15  A    between atoms: C_16  and  C_18 
ROOT
HETATM    1  O   UNL     1      40.559   8.867 -17.159  1.00  0.00    -0.776 OA
HETATM    2  H   UNL     1      40.346   9.808 -17.080  1.00  0.00     0.167 HD
ENDROOT
BRANCH   1   3
HETATM    3  C   UNL     1      39.594   7.923 -17.136  1.00  0.00     0.139 C 
HETATM    4  O   UNL     1      39.568   7.060 -18.001  1.00  0.00    -0.650 OA
BRANCH   3   5
HETATM    5  C   UNL     1      38.566   7.957 -16.034  1.00  0.00     0.110 C 
BRANCH   5   6
HETATM    6  C   UNL     1      38.884   6.991 -14.882  1.00  0.00     0.010 C 
BRANCH   6   7
HETATM    7  C   UNL     1      39.799   7.654 -13.847  1.00  0.00     0.001 C 
BRANCH   7   8
HETATM    8  C   UNL     1      39.348   7.319 -12.420  1.00  0.00     0.000 C 
BRANCH   8   9
HETATM    9  C   UNL     1      38.582   8.492 -11.795  1.00  0.00     0.000 C 
BRANCH   9  10
HETATM   10  C   UNL     1      38.143   8.162 -10.364  1.00  0.00     0.000 C 
BRANCH  10  11
HETATM   11  C   UNL     1      38.985   7.021  -9.780  1.00  0.00     0.000 C 
BRANCH  11  12
HETATM   12  C   UNL     1      39.918   7.534  -8.677  1.00  0.00     0.000 C 
BRANCH  12  13
HETATM   13  C   UNL     1      39.133   8.290  -7.599  1.00  0.00     0.000 C 
BRANCH  13  14
HETATM   14  C   UNL     1      39.915   9.514  -7.106  1.00  0.00     0.000 C 
BRANCH  14  15
HETATM   15  C   UNL     1      40.812   9.152  -5.916  1.00  0.00     0.000 C 
BRANCH  15  16
HETATM   16  C   UNL     1      40.082   8.224  -4.939  1.00  0.00     0.000 C 
BRANCH  16  17
HETATM   17  C   UNL     1      39.796   8.938  -3.612  1.00  0.00    -0.000 C 
BRANCH  17  18
HETATM   18  C   UNL     1      38.295   8.938  -3.301  1.00  0.00    -0.005 C 
HETATM   19  C   UNL     1      37.537   9.871  -4.242  1.00  0.00     0.005 C 
ENDBRANCH  17  18
ENDBRANCH  16  17
ENDBRANCH  15  16
ENDBRANCH  14  15
ENDBRANCH  13  14
ENDBRANCH  12  13
ENDBRANCH  11  12
ENDBRANCH  10  11
ENDBRANCH   9  10
ENDBRANCH   8   9
ENDBRANCH   7   8
ENDBRANCH   6   7
ENDBRANCH   5   6
ENDBRANCH   3   5
ENDBRANCH   1   3
TORSDOF 15
ENDMDL
MODEL 17
REMARK VINA RESULT:      -4.4      4.128      7.981
REMARK  15 active torsions:
REMARK  status: ('A' for Active; 'I' for Inactive)
REMARK    1  A    between atoms: O_1  and  C_18 
REMARK    2  A    between atoms: C_3  and  C_4 
REMARK    3  A    between atoms: C_3  and  C_5 
REMARK    4  A    between atoms: C_4  and  C_6 
REMARK    5  A    between atoms: C_5  and  C_7 
REMARK    6  A    between atoms: C_6  and  C_8 
REMARK    7  A    between atoms: C_7  and  C_9 
REMARK    8  A    between atoms: C_8  and  C_10 
REMARK    9  A    between atoms: C_9  and  C_11 
REMARK   10  A    between atoms: C_10  and  C_12 
REMARK   11  A    between atoms: C_11  and  C_13 
REMARK   12  A    between atoms: C_12  and  C_14 
REMARK   13  A    between atoms: C_13  and  C_15 
REMARK   14  A    between atoms: C_14  and  C_16 
REMARK   15  A    between atoms: C_16  and  C_18 
ROOT
HETATM    1  O   UNL     1      41.865  13.139 -11.346  1.00  0.00    -0.776 OA
HETATM    2  H   UNL     1      42.200  14.007 -11.081  1.00  0.00     0.167 HD
ENDROOT
BRANCH   1   3
HETATM    3  C   UNL     1      42.178  12.023 -10.655  1.00  0.00     0.139 C 
HETATM    4  O   UNL     1      43.108  12.041  -9.861  1.00  0.00    -0.650 OA
BRANCH   3   5
HETATM    5  C   UNL     1      41.367  10.773 -10.879  1.00  0.00     0.110 C 
BRANCH   5   6
HETATM    6  C   UNL     1      40.682  10.261  -9.602  1.00  0.00     0.010 C 
BRANCH   6   7
HETATM    7  C   UNL     1      41.372   8.998  -9.077  1.00  0.00     0.001 C 
BRANCH   7   8
HETATM    8  C   UNL     1      40.446   7.780  -9.183  1.00  0.00     0.000 C 
BRANCH   8   9
HETATM    9  C   UNL     1      38.973   8.200  -9.104  1.00  0.00     0.000 C 
BRANCH   9  10
HETATM   10  C   UNL     1      38.168   7.602 -10.264  1.00  0.00     0.000 C 
BRANCH  10  11
HETATM   11  C   UNL     1      37.661   8.700 -11.205  1.00  0.00     0.000 C 
BRANCH  11  12
HETATM   12  C   UNL     1      38.574   8.843 -12.429  1.00  0.00     0.000 C 
BRANCH  12  13
HETATM   13  C   UNL     1      39.291   7.524 -12.737  1.00  0.00     0.000 C 
BRANCH  13  14
HETATM   14  C   UNL     1      39.945   7.564 -14.124  1.00  0.00     0.000 C 
BRANCH  14  15
HETATM   15  C   UNL     1      39.053   6.889 -15.173  1.00  0.00     0.000 C 
BRANCH  15  16
HETATM   16  C   UNL     1      39.014   7.706 -16.469  1.00  0.00     0.000 C 
BRANCH  16  17
HETATM   17  C   UNL     1      38.839   9.200 -16.173  1.00  0.00    -0.000 C 
BRANCH  17  18
HETATM   18  C   UNL     1      37.438   9.679 -16.569  1.00  0.00    -0.005 C 
HETATM   19  C   UNL     1      36.661  10.175 -15.353  1.00  0.00     0.005 C 
ENDBRANCH  17  18
ENDBRANCH  16  17
ENDBRANCH  15  16
ENDBRANCH  14  15
ENDBRANCH  13  14
ENDBRANCH  12  13
ENDBRANCH  11  12
ENDBRANCH  10  11
ENDBRANCH   9  10
ENDBRANCH   8   9
ENDBRANCH   7   8
ENDBRANCH   6   7
ENDBRANCH   5   6
ENDBRANCH   3   5
ENDBRANCH   1   3
TORSDOF 15
ENDMDL
MODEL 18
REMARK VINA RESULT:      -4.4      3.529      6.826
REMARK  15 active torsions:
REMARK  status: ('A' for Active; 'I' for Inactive)
REMARK    1  A    between atoms: O_1  and  C_18 
REMARK    2  A    between atoms: C_3  and  C_4 
REMARK    3  A    between atoms: C_3  and  C_5 
REMARK    4  A    between atoms: C_4  and  C_6 
REMARK    5  A    between atoms: C_5  and  C_7 
REMARK    6  A    between atoms: C_6  and  C_8 
REMARK    7  A    between atoms: C_7  and  C_9 
REMARK    8  A    between atoms: C_8  and  C_10 
REMARK    9  A    between atoms: C_9  and  C_11 
REMARK   10  A    between atoms: C_10  and  C_12 
REMARK   11  A    between atoms: C_11  and  C_13 
REMARK   12  A    between atoms: C_12  and  C_14 
REMARK   13  A    between atoms: C_13  and  C_15 
REMARK   14  A    between atoms: C_14  and  C_16 
REMARK   15  A    between atoms: C_16  and  C_18 
ROOT
HETATM    1  O   UNL     1      34.409  11.328 -11.830  1.00  0.00    -0.776 OA
HETATM    2  H   UNL     1      33.893  10.735 -11.266  1.00  0.00     0.167 HD
ENDROOT
BRANCH   1   3
HETATM    3  C   UNL     1      35.733  11.142 -12.021  1.00  0.00     0.139 C 
HETATM    4  O   UNL     1      36.224  11.361 -13.119  1.00  0.00    -0.650 OA
BRANCH   3   5
HETATM    5  C   UNL     1      36.578  10.669 -10.867  1.00  0.00     0.110 C 
BRANCH   5   6
HETATM    6  C   UNL     1      37.260   9.318 -11.133  1.00  0.00     0.010 C 
BRANCH   6   7
HETATM    7  C   UNL     1      37.772   8.694  -9.830  1.00  0.00     0.001 C 
BRANCH   7   8
HETATM    8  C   UNL     1      38.575   7.418 -10.109  1.00  0.00     0.000 C 
BRANCH   8   9
HETATM    9  C   UNL     1      39.870   7.391  -9.288  1.00  0.00     0.000 C 
BRANCH   9  10
HETATM   10  C   UNL     1      39.688   8.118  -7.951  1.00  0.00     0.000 C 
BRANCH  10  11
HETATM   11  C   UNL     1      40.737   9.224  -7.779  1.00  0.00     0.000 C 
BRANCH  11  12
HETATM   12  C   UNL     1      41.512   9.456  -9.081  1.00  0.00     0.000 C 
BRANCH  12  13
HETATM   13  C   UNL     1      41.053  10.744  -9.773  1.00  0.00     0.000 C 
BRANCH  13  14
HETATM   14  C   UNL     1      41.452  10.746 -11.254  1.00  0.00     0.000 C 
BRANCH  14  15
HETATM   15  C   UNL     1      40.750   9.615 -12.015  1.00  0.00     0.000 C 
BRANCH  15  16
HETATM   16  C   UNL     1      41.104   9.653 -13.506  1.00  0.00     0.000 C 
BRANCH  16  17
HETATM   17  C   UNL     1      40.971   8.262 -14.138  1.00  0.00    -0.000 C 
BRANCH  17  18
HETATM   18  C   UNL     1      39.733   7.531 -13.605  1.00  0.00    -0.005 C 
HETATM   19  C   UNL     1      38.814   7.100 -14.744  1.00  0.00     0.005 C 
ENDBRANCH  17  18
ENDBRANCH  16  17
ENDBRANCH  15  16
ENDBRANCH  14  15
ENDBRANCH  13  14
ENDBRANCH  12  13
ENDBRANCH  11  12
ENDBRANCH  10  11
ENDBRANCH   9  10
ENDBRANCH   8   9
ENDBRANCH   7   8
ENDBRANCH   6   7
ENDBRANCH   5   6
ENDBRANCH   3   5
ENDBRANCH   1   3
TORSDOF 15
ENDMDL
MODEL 19
REMARK VINA RESULT:      -4.3     24.985     27.064
REMARK  15 active torsions:
REMARK  status: ('A' for Active; 'I' for Inactive)
REMARK    1  A    between atoms: O_1  and  C_18 
REMARK    2  A    between atoms: C_3  and  C_4 
REMARK    3  A    between atoms: C_3  and  C_5 
REMARK    4  A    between atoms: C_4  and  C_6 
REMARK    5  A    between atoms: C_5  and  C_7 
REMARK    6  A    between atoms: C_6  and  C_8 
REMARK    7  A    between atoms: C_7  and  C_9 
REMARK    8  A    between atoms: C_8  and  C_10 
REMARK    9  A    between atoms: C_9  and  C_11 
REMARK   10  A    between atoms: C_10  and  C_12 
REMARK   11  A    between atoms: C_11  and  C_13 
REMARK   12  A    between atoms: C_12  and  C_14 
REMARK   13  A    between atoms: C_13  and  C_15 
REMARK   14  A    between atoms: C_14  and  C_16 
REMARK   15  A    between atoms: C_16  and  C_18 
ROOT
HETATM    1  O   UNL     1      29.894 -21.116  -4.061  1.00  0.00    -0.776 OA
HETATM    2  H   UNL     1      30.353 -21.772  -3.518  1.00  0.00     0.167 HD
ENDROOT
BRANCH   1   3
HETATM    3  C   UNL     1      30.550 -20.387  -4.989  1.00  0.00     0.139 C 
HETATM    4  O   UNL     1      31.313 -20.940  -5.768  1.00  0.00    -0.650 OA
BRANCH   3   5
HETATM    5  C   UNL     1      30.322 -18.898  -5.043  1.00  0.00     0.110 C 
BRANCH   5   6
HETATM    6  C   UNL     1      30.403 -18.327  -6.467  1.00  0.00     0.010 C 
BRANCH   6   7
HETATM    7  C   UNL     1      30.141 -16.817  -6.469  1.00  0.00     0.001 C 
BRANCH   7   8
HETATM    8  C   UNL     1      31.062 -16.097  -5.476  1.00  0.00     0.000 C 
BRANCH   8   9
HETATM    9  C   UNL     1      31.581 -14.779  -6.063  1.00  0.00     0.000 C 
BRANCH   9  10
HETATM   10  C   UNL     1      31.597 -13.673  -5.002  1.00  0.00     0.000 C 
BRANCH  10  11
HETATM   11  C   UNL     1      31.201 -12.322  -5.609  1.00  0.00     0.000 C 
BRANCH  11  12
HETATM   12  C   UNL     1      29.787 -11.917  -5.176  1.00  0.00     0.000 C 
BRANCH  12  13
HETATM   13  C   UNL     1      29.245 -12.869  -4.105  1.00  0.00     0.000 C 
BRANCH  13  14
HETATM   14  C   UNL     1      28.121 -13.748  -4.667  1.00  0.00     0.000 C 
BRANCH  14  15
HETATM   15  C   UNL     1      27.554 -13.154  -5.963  1.00  0.00     0.000 C 
BRANCH  15  16
HETATM   16  C   UNL     1      27.781 -14.101  -7.147  1.00  0.00     0.000 C 
BRANCH  16  17
HETATM   17  C   UNL     1      28.413 -13.358  -8.331  1.00  0.00    -0.000 C 
BRANCH  17  18
HETATM   18  C   UNL     1      29.539 -14.186  -8.961  1.00  0.00    -0.005 C 
HETATM   19  C   UNL     1      28.979 -15.361  -9.758  1.00  0.00     0.005 C 
ENDBRANCH  17  18
ENDBRANCH  16  17
ENDBRANCH  15  16
ENDBRANCH  14  15
ENDBRANCH  13  14
ENDBRANCH  12  13
ENDBRANCH  11  12
ENDBRANCH  10  11
ENDBRANCH   9  10
ENDBRANCH   8   9
ENDBRANCH   7   8
ENDBRANCH   6   7
ENDBRANCH   5   6
ENDBRANCH   3   5
ENDBRANCH   1   3
TORSDOF 15
ENDMDL
MODEL 20
REMARK VINA RESULT:      -4.3     24.977     26.149
REMARK  15 active torsions:
REMARK  status: ('A' for Active; 'I' for Inactive)
REMARK    1  A    between atoms: O_1  and  C_18 
REMARK    2  A    between atoms: C_3  and  C_4 
REMARK    3  A    between atoms: C_3  and  C_5 
REMARK    4  A    between atoms: C_4  and  C_6 
REMARK    5  A    between atoms: C_5  and  C_7 
REMARK    6  A    between atoms: C_6  and  C_8 
REMARK    7  A    between atoms: C_7  and  C_9 
REMARK    8  A    between atoms: C_8  and  C_10 
REMARK    9  A    between atoms: C_9  and  C_11 
REMARK   10  A    between atoms: C_10  and  C_12 
REMARK   11  A    between atoms: C_11  and  C_13 
REMARK   12  A    between atoms: C_12  and  C_14 
REMARK   13  A    between atoms: C_13  and  C_15 
REMARK   14  A    between atoms: C_14  and  C_16 
REMARK   15  A    between atoms: C_16  and  C_18 
ROOT
HETATM    1  O   UNL     1      29.895 -21.072 -13.896  1.00  0.00    -0.776 OA
HETATM    2  H   UNL     1      28.942 -20.959 -13.772  1.00  0.00     0.167 HD
ENDROOT
BRANCH   1   3
HETATM    3  C   UNL     1      30.572 -20.369 -14.829  1.00  0.00     0.139 C 
HETATM    4  O   UNL     1      31.296 -20.953 -15.622  1.00  0.00    -0.650 OA
BRANCH   3   5
HETATM    5  C   UNL     1      30.414 -18.871 -14.871  1.00  0.00     0.110 C 
BRANCH   5   6
HETATM    6  C   UNL     1      30.428 -18.303 -16.299  1.00  0.00     0.010 C 
BRANCH   6   7
HETATM    7  C   UNL     1      30.068 -16.813 -16.300  1.00  0.00     0.001 C 
BRANCH   7   8
HETATM    8  C   UNL     1      31.281 -15.954 -16.681  1.00  0.00     0.000 C 
BRANCH   8   9
HETATM    9  C   UNL     1      30.840 -14.614 -17.282  1.00  0.00     0.000 C 
BRANCH   9  10
HETATM   10  C   UNL     1      29.358 -14.647 -17.670  1.00  0.00     0.000 C 
BRANCH  10  11
HETATM   11  C   UNL     1      28.671 -13.319 -17.331  1.00  0.00     0.000 C 
BRANCH  11  12
HETATM   12  C   UNL     1      28.348 -13.231 -15.835  1.00  0.00     0.000 C 
BRANCH  12  13
HETATM   13  C   UNL     1      29.006 -12.001 -15.200  1.00  0.00     0.000 C 
BRANCH  13  14
HETATM   14  C   UNL     1      29.755 -12.379 -13.916  1.00  0.00     0.000 C 
BRANCH  14  15
HETATM   15  C   UNL     1      29.893 -13.901 -13.787  1.00  0.00     0.000 C 
BRANCH  15  16
HETATM   16  C   UNL     1      31.156 -14.275 -13.003  1.00  0.00     0.000 C 
BRANCH  16  17
HETATM   17  C   UNL     1      31.394 -15.789 -13.032  1.00  0.00    -0.000 C 
BRANCH  17  18
HETATM   18  C   UNL     1      31.396 -16.374 -11.615  1.00  0.00    -0.005 C 
HETATM   19  C   UNL     1      30.255 -17.370 -11.429  1.00  0.00     0.005 C 
ENDBRANCH  17  18
ENDBRANCH  16  17
ENDBRANCH  15  16
ENDBRANCH  14  15
ENDBRANCH  13  14
ENDBRANCH  12  13
ENDBRANCH  11  12
ENDBRANCH  10  11
ENDBRANCH   9  10
ENDBRANCH   8   9
ENDBRANCH   7   8
ENDBRANCH   6   7
ENDBRANCH   5   6
ENDBRANCH   3   5
ENDBRANCH   1   3
TORSDOF 15
ENDMDL
