MODEL 1
REMARK VINA RESULT:      -8.1      0.000      0.000
REMARK  2 active torsions:
REMARK  status: ('A' for Active; 'I' for Inactive)
REMARK    1  A    between atoms: N_3  and  C_15 
REMARK    2  A    between atoms: C_5  and  C_7 
ROOT
HETATM    1  S   UNL     1      31.082 -20.513 -10.574  1.00  0.00    -0.069 SA
HETATM    2  N   UNL     1      30.354 -18.087 -10.633  1.00  0.00    -0.344 N 
HETATM    3  C   UNL     1      30.426 -18.528 -11.930  1.00  0.00     0.052 A 
HETATM    4  C   UNL     1      30.665 -19.090  -9.743  1.00  0.00     0.087 A 
HETATM    5  C   UNL     1      30.814 -19.849 -12.080  1.00  0.00     0.034 A 
HETATM    6  C   UNL     1      30.159 -17.759 -13.077  1.00  0.00     0.031 A 
HETATM    7  C   UNL     1      30.948 -20.460 -13.324  1.00  0.00     0.028 A 
HETATM    8  C   UNL     1      30.043 -16.685 -10.321  1.00  0.00     0.157 C 
HETATM    9  C   UNL     1      30.678 -19.698 -14.476  1.00  0.00    -0.061 A 
HETATM   10  C   UNL     1      30.285 -18.349 -14.344  1.00  0.00     0.009 A 
HETATM   11  C   UNL     1      30.805 -20.304 -15.841  1.00  0.00     0.048 C 
ENDROOT
BRANCH   4  12
HETATM   12  C   UNL     1      30.637 -19.048  -8.246  1.00  0.00    -0.002 A 
HETATM   13  C   UNL     1      30.309 -17.890  -7.519  1.00  0.00     0.016 A 
HETATM   14  C   UNL     1      30.273 -17.901  -6.121  1.00  0.00     0.030 A 
HETATM   15  C   UNL     1      30.554 -19.074  -5.390  1.00  0.00     0.029 A 
HETATM   16  C   UNL     1      30.861 -20.240  -6.124  1.00  0.00     0.030 A 
HETATM   17  C   UNL     1      30.892 -20.226  -7.521  1.00  0.00     0.016 A 
BRANCH  15  18
HETATM   18  N   UNL     1      30.518 -19.087  -3.947  1.00  0.00    -0.390 N 
HETATM   19  C   UNL     1      30.761 -20.319  -3.209  1.00  0.00     0.149 C 
HETATM   20  C   UNL     1      30.237 -17.868  -3.201  1.00  0.00     0.149 C 
ENDBRANCH  15  18
ENDBRANCH   4  12
TORSDOF 2
ENDMDL
MODEL 2
REMARK VINA RESULT:      -8.1      2.578      4.874
REMARK  2 active torsions:
REMARK  status: ('A' for Active; 'I' for Inactive)
REMARK    1  A    between atoms: N_3  and  C_15 
REMARK    2  A    between atoms: C_5  and  C_7 
ROOT
HETATM    1  S   UNL     1      31.016 -20.523 -15.381  1.00  0.00    -0.069 SA
HETATM    2  N   UNL     1      30.344 -18.080 -15.443  1.00  0.00    -0.344 N 
HETATM    3  C   UNL     1      30.405 -18.524 -16.740  1.00  0.00     0.052 A 
HETATM    4  C   UNL     1      30.633 -19.089 -14.552  1.00  0.00     0.087 A 
HETATM    5  C   UNL     1      30.762 -19.855 -16.888  1.00  0.00     0.034 A 
HETATM    6  C   UNL     1      30.156 -17.751 -17.887  1.00  0.00     0.031 A 
HETATM    7  C   UNL     1      30.881 -20.470 -18.131  1.00  0.00     0.028 A 
HETATM    8  C   UNL     1      30.067 -16.671 -15.133  1.00  0.00     0.157 C 
HETATM    9  C   UNL     1      30.628 -19.704 -19.284  1.00  0.00    -0.061 A 
HETATM   10  C   UNL     1      30.266 -18.346 -19.154  1.00  0.00     0.009 A 
HETATM   11  C   UNL     1      30.740 -20.315 -20.649  1.00  0.00     0.048 C 
ENDROOT
BRANCH   4  12
HETATM   12  C   UNL     1      30.607 -19.044 -13.055  1.00  0.00    -0.002 A 
HETATM   13  C   UNL     1      30.274 -17.887 -12.329  1.00  0.00     0.016 A 
HETATM   14  C   UNL     1      30.241 -17.895 -10.932  1.00  0.00     0.030 A 
HETATM   15  C   UNL     1      30.529 -19.066 -10.199  1.00  0.00     0.029 A 
HETATM   16  C   UNL     1      30.840 -20.231 -10.932  1.00  0.00     0.030 A 
HETATM   17  C   UNL     1      30.868 -20.220 -12.328  1.00  0.00     0.016 A 
BRANCH  15  18
HETATM   18  N   UNL     1      30.495 -19.075  -8.756  1.00  0.00    -0.390 N 
HETATM   19  C   UNL     1      30.218 -17.854  -8.012  1.00  0.00     0.149 C 
HETATM   20  C   UNL     1      30.739 -20.306  -8.016  1.00  0.00     0.149 C 
ENDBRANCH  15  18
ENDBRANCH   4  12
TORSDOF 2
ENDMDL
MODEL 3
REMARK VINA RESULT:      -8.0      2.429      4.686
REMARK  2 active torsions:
REMARK  status: ('A' for Active; 'I' for Inactive)
REMARK    1  A    between atoms: N_3  and  C_15 
REMARK    2  A    between atoms: C_5  and  C_7 
ROOT
HETATM    1  S   UNL     1      31.019 -20.557 -15.119  1.00  0.00    -0.069 SA
HETATM    2  N   UNL     1      30.345 -18.115 -15.087  1.00  0.00    -0.344 N 
HETATM    3  C   UNL     1      30.402 -18.510 -16.400  1.00  0.00     0.052 A 
HETATM    4  C   UNL     1      30.638 -19.157 -14.236  1.00  0.00     0.087 A 
HETATM    5  C   UNL     1      30.760 -19.834 -16.599  1.00  0.00     0.034 A 
HETATM    6  C   UNL     1      30.148 -17.694 -17.516  1.00  0.00     0.031 A 
HETATM    7  C   UNL     1      30.875 -20.402 -17.865  1.00  0.00     0.028 A 
HETATM    8  C   UNL     1      30.068 -16.718 -14.723  1.00  0.00     0.157 C 
HETATM    9  C   UNL     1      30.617 -19.593 -18.987  1.00  0.00    -0.061 A 
HETATM   10  C   UNL     1      30.255 -18.242 -18.805  1.00  0.00     0.009 A 
HETATM   11  C   UNL     1      30.725 -20.152 -20.374  1.00  0.00     0.048 C 
ENDROOT
BRANCH   4  12
HETATM   12  C   UNL     1      30.617 -19.168 -12.738  1.00  0.00    -0.002 A 
HETATM   13  C   UNL     1      30.917 -20.311 -11.976  1.00  0.00     0.016 A 
HETATM   14  C   UNL     1      30.907 -20.272 -10.579  1.00  0.00     0.030 A 
HETATM   15  C   UNL     1      30.605 -19.082  -9.882  1.00  0.00     0.029 A 
HETATM   16  C   UNL     1      30.327 -17.932 -10.650  1.00  0.00     0.030 A 
HETATM   17  C   UNL     1      30.342 -17.974 -12.046  1.00  0.00     0.016 A 
BRANCH  15  18
HETATM   18  N   UNL     1      30.594 -19.040  -8.439  1.00  0.00    -0.390 N 
HETATM   19  C   UNL     1      30.287 -17.802  -7.735  1.00  0.00     0.149 C 
HETATM   20  C   UNL     1      30.890 -20.234  -7.659  1.00  0.00     0.149 C 
ENDBRANCH  15  18
ENDBRANCH   4  12
TORSDOF 2
ENDMDL
MODEL 4
REMARK VINA RESULT:      -8.0      1.713      7.895
REMARK  2 active torsions:
REMARK  status: ('A' for Active; 'I' for Inactive)
REMARK    1  A    between atoms: N_3  and  C_15 
REMARK    2  A    between atoms: C_5  and  C_7 
ROOT
HETATM    1  S   UNL     1      30.874 -20.494 -10.070  1.00  0.00    -0.069 SA
HETATM    2  N   UNL     1      30.285 -18.030 -10.004  1.00  0.00    -0.344 N 
HETATM    3  C   UNL     1      30.436 -18.453  -8.708  1.00  0.00     0.052 A 
HETATM    4  C   UNL     1      30.525 -19.051 -10.897  1.00  0.00     0.087 A 
HETATM    5  C   UNL     1      30.763 -19.791  -8.561  1.00  0.00     0.034 A 
HETATM    6  C   UNL     1      30.273 -17.658  -7.559  1.00  0.00     0.031 A 
HETATM    7  C   UNL     1      30.946 -20.391  -7.319  1.00  0.00     0.028 A 
HETATM    8  C   UNL     1      29.850 -16.661 -10.313  1.00  0.00     0.157 C 
HETATM    9  C   UNL     1      30.791 -19.602  -6.165  1.00  0.00    -0.061 A 
HETATM   10  C   UNL     1      30.454 -18.237  -6.293  1.00  0.00     0.009 A 
HETATM   11  C   UNL     1      30.977 -20.195  -4.801  1.00  0.00     0.048 C 
ENDROOT
BRANCH   4  12
HETATM   12  C   UNL     1      30.537 -18.994 -12.394  1.00  0.00    -0.002 A 
HETATM   13  C   UNL     1      30.814 -17.817 -13.113  1.00  0.00     0.016 A 
HETATM   14  C   UNL     1      30.837 -17.814 -14.511  1.00  0.00     0.030 A 
HETATM   15  C   UNL     1      30.594 -18.991 -15.250  1.00  0.00     0.029 A 
HETATM   16  C   UNL     1      30.339 -20.174 -14.524  1.00  0.00     0.030 A 
HETATM   17  C   UNL     1      30.321 -20.174 -13.127  1.00  0.00     0.016 A 
BRANCH  15  18
HETATM   18  N   UNL     1      30.616 -18.989 -16.694  1.00  0.00    -0.390 N 
HETATM   19  C   UNL     1      30.331 -17.769 -17.438  1.00  0.00     0.149 C 
HETATM   20  C   UNL     1      30.923 -20.206 -17.433  1.00  0.00     0.149 C 
ENDBRANCH  15  18
ENDBRANCH   4  12
TORSDOF 2
ENDMDL
MODEL 5
REMARK VINA RESULT:      -7.8      1.495      2.462
REMARK  2 active torsions:
REMARK  status: ('A' for Active; 'I' for Inactive)
REMARK    1  A    between atoms: N_3  and  C_15 
REMARK    2  A    between atoms: C_5  and  C_7 
ROOT
HETATM    1  S   UNL     1      30.962 -20.326 -13.111  1.00  0.00    -0.069 SA
HETATM    2  N   UNL     1      30.413 -17.854 -13.009  1.00  0.00    -0.344 N 
HETATM    3  C   UNL     1      30.434 -18.218 -14.332  1.00  0.00     0.052 A 
HETATM    4  C   UNL     1      30.662 -18.931 -12.188  1.00  0.00     0.087 A 
HETATM    5  C   UNL     1      30.722 -19.553 -14.569  1.00  0.00     0.034 A 
HETATM    6  C   UNL     1      30.210 -17.362 -15.425  1.00  0.00     0.031 A 
HETATM    7  C   UNL     1      30.794 -20.093 -15.850  1.00  0.00     0.028 A 
HETATM    8  C   UNL     1      30.211 -16.455 -12.607  1.00  0.00     0.157 C 
HETATM    9  C   UNL     1      30.564 -19.244 -16.948  1.00  0.00    -0.061 A 
HETATM   10  C   UNL     1      30.274 -17.881 -16.728  1.00  0.00     0.009 A 
HETATM   11  C   UNL     1      30.627 -19.772 -18.350  1.00  0.00     0.048 C 
ENDROOT
BRANCH   4  12
HETATM   12  C   UNL     1      30.658 -18.979 -10.691  1.00  0.00    -0.002 A 
HETATM   13  C   UNL     1      30.146 -17.941  -9.892  1.00  0.00     0.016 A 
HETATM   14  C   UNL     1      30.141 -18.037  -8.498  1.00  0.00     0.030 A 
HETATM   15  C   UNL     1      30.640 -19.182  -7.841  1.00  0.00     0.029 A 
HETATM   16  C   UNL     1      31.132 -20.231  -8.646  1.00  0.00     0.030 A 
HETATM   17  C   UNL     1      31.131 -20.133 -10.040  1.00  0.00     0.016 A 
BRANCH  15  18
HETATM   18  N   UNL     1      30.637 -19.282  -6.401  1.00  0.00    -0.390 N 
HETATM   19  C   UNL     1      30.928 -20.550  -5.744  1.00  0.00     0.149 C 
HETATM   20  C   UNL     1      30.341 -18.118  -5.576  1.00  0.00     0.149 C 
ENDBRANCH  15  18
ENDBRANCH   4  12
TORSDOF 2
ENDMDL
MODEL 6
REMARK VINA RESULT:      -7.8      3.515      9.641
REMARK  2 active torsions:
REMARK  status: ('A' for Active; 'I' for Inactive)
REMARK    1  A    between atoms: N_3  and  C_15 
REMARK    2  A    between atoms: C_5  and  C_7 
ROOT
HETATM    1  S   UNL     1      30.853 -20.490 -14.025  1.00  0.00    -0.069 SA
HETATM    2  N   UNL     1      30.260 -18.026 -13.983  1.00  0.00    -0.344 N 
HETATM    3  C   UNL     1      30.419 -18.435 -12.683  1.00  0.00     0.052 A 
HETATM    4  C   UNL     1      30.497 -19.056 -14.866  1.00  0.00     0.087 A 
HETATM    5  C   UNL     1      30.749 -19.771 -12.524  1.00  0.00     0.034 A 
HETATM    6  C   UNL     1      30.262 -17.628 -11.542  1.00  0.00     0.031 A 
HETATM    7  C   UNL     1      30.940 -20.357 -11.276  1.00  0.00     0.028 A 
HETATM    8  C   UNL     1      29.823 -16.661 -14.305  1.00  0.00     0.157 C 
HETATM    9  C   UNL     1      30.790 -19.555 -10.129  1.00  0.00    -0.061 A 
HETATM   10  C   UNL     1      30.450 -18.193 -10.271  1.00  0.00     0.009 A 
HETATM   11  C   UNL     1      30.984 -20.133  -8.760  1.00  0.00     0.048 C 
ENDROOT
BRANCH   4  12
HETATM   12  C   UNL     1      30.501 -19.016 -16.363  1.00  0.00    -0.002 A 
HETATM   13  C   UNL     1      30.311 -17.832 -17.098  1.00  0.00     0.016 A 
HETATM   14  C   UNL     1      30.344 -17.836 -18.496  1.00  0.00     0.030 A 
HETATM   15  C   UNL     1      30.579 -19.024 -19.219  1.00  0.00     0.029 A 
HETATM   16  C   UNL     1      30.792 -20.205 -18.478  1.00  0.00     0.030 A 
HETATM   17  C   UNL     1      30.762 -20.197 -17.081  1.00  0.00     0.016 A 
BRANCH  15  18
HETATM   18  N   UNL     1      30.613 -19.029 -20.663  1.00  0.00    -0.390 N 
HETATM   19  C   UNL     1      30.320 -17.817 -21.416  1.00  0.00     0.149 C 
HETATM   20  C   UNL     1      30.939 -20.246 -21.393  1.00  0.00     0.149 C 
ENDBRANCH  15  18
ENDBRANCH   4  12
TORSDOF 2
ENDMDL
MODEL 7
REMARK VINA RESULT:      -7.6      4.059     10.182
REMARK  2 active torsions:
REMARK  status: ('A' for Active; 'I' for Inactive)
REMARK    1  A    between atoms: N_3  and  C_15 
REMARK    2  A    between atoms: C_5  and  C_7 
ROOT
HETATM    1  S   UNL     1      30.845 -20.464 -14.929  1.00  0.00    -0.069 SA
HETATM    2  N   UNL     1      30.266 -17.997 -14.878  1.00  0.00    -0.344 N 
HETATM    3  C   UNL     1      30.424 -18.411 -13.580  1.00  0.00     0.052 A 
HETATM    4  C   UNL     1      30.495 -19.026 -15.765  1.00  0.00     0.087 A 
HETATM    5  C   UNL     1      30.747 -19.750 -13.425  1.00  0.00     0.034 A 
HETATM    6  C   UNL     1      30.272 -17.607 -12.436  1.00  0.00     0.031 A 
HETATM    7  C   UNL     1      30.936 -20.341 -12.180  1.00  0.00     0.028 A 
HETATM    8  C   UNL     1      29.835 -16.628 -15.195  1.00  0.00     0.157 C 
HETATM    9  C   UNL     1      30.792 -19.542 -11.030  1.00  0.00    -0.061 A 
HETATM   10  C   UNL     1      30.459 -18.178 -11.167  1.00  0.00     0.009 A 
HETATM   11  C   UNL     1      30.985 -20.126  -9.663  1.00  0.00     0.048 C 
ENDROOT
BRANCH   4  12
HETATM   12  C   UNL     1      30.498 -18.980 -17.262  1.00  0.00    -0.002 A 
HETATM   13  C   UNL     1      30.541 -17.778 -17.992  1.00  0.00     0.016 A 
HETATM   14  C   UNL     1      30.564 -17.783 -19.390  1.00  0.00     0.030 A 
HETATM   15  C   UNL     1      30.555 -18.991 -20.118  1.00  0.00     0.029 A 
HETATM   16  C   UNL     1      30.534 -20.194 -19.382  1.00  0.00     0.030 A 
HETATM   17  C   UNL     1      30.516 -20.186 -17.985  1.00  0.00     0.016 A 
BRANCH  15  18
HETATM   18  N   UNL     1      30.578 -18.996 -21.562  1.00  0.00    -0.390 N 
HETATM   19  C   UNL     1      30.877 -20.219 -22.295  1.00  0.00     0.149 C 
HETATM   20  C   UNL     1      30.303 -17.779 -22.314  1.00  0.00     0.149 C 
ENDBRANCH  15  18
ENDBRANCH   4  12
TORSDOF 2
ENDMDL
MODEL 8
REMARK VINA RESULT:      -7.5      1.706      8.077
REMARK  2 active torsions:
REMARK  status: ('A' for Active; 'I' for Inactive)
REMARK    1  A    between atoms: N_3  and  C_15 
REMARK    2  A    between atoms: C_5  and  C_7 
ROOT
HETATM    1  S   UNL     1      30.844 -20.505  -5.624  1.00  0.00    -0.069 SA
HETATM    2  N   UNL     1      30.293 -18.032  -5.596  1.00  0.00    -0.344 N 
HETATM    3  C   UNL     1      30.445 -18.435  -4.294  1.00  0.00     0.052 A 
HETATM    4  C   UNL     1      30.512 -19.071  -6.473  1.00  0.00     0.087 A 
HETATM    5  C   UNL     1      30.752 -19.776  -4.127  1.00  0.00     0.034 A 
HETATM    6  C   UNL     1      30.301 -17.619  -3.158  1.00  0.00     0.031 A 
HETATM    7  C   UNL     1      30.933 -20.358  -2.875  1.00  0.00     0.028 A 
HETATM    8  C   UNL     1      29.878 -16.661  -5.926  1.00  0.00     0.157 C 
HETATM    9  C   UNL     1      30.796 -19.547  -1.734  1.00  0.00    -0.061 A 
HETATM   10  C   UNL     1      30.479 -18.180  -1.883  1.00  0.00     0.009 A 
HETATM   11  C   UNL     1      30.980 -20.120  -0.361  1.00  0.00     0.048 C 
ENDROOT
BRANCH   4  12
HETATM   12  C   UNL     1      30.517 -19.039  -7.971  1.00  0.00    -0.002 A 
HETATM   13  C   UNL     1      30.381 -17.852  -8.712  1.00  0.00     0.016 A 
HETATM   14  C   UNL     1      30.414 -17.865 -10.110  1.00  0.00     0.030 A 
HETATM   15  C   UNL     1      30.593 -19.067 -10.826  1.00  0.00     0.029 A 
HETATM   16  C   UNL     1      30.752 -20.253 -10.078  1.00  0.00     0.030 A 
HETATM   17  C   UNL     1      30.723 -20.235  -8.682  1.00  0.00     0.016 A 
BRANCH  15  18
HETATM   18  N   UNL     1      30.626 -19.082 -12.270  1.00  0.00    -0.390 N 
HETATM   19  C   UNL     1      30.228 -17.907 -13.033  1.00  0.00     0.149 C 
HETATM   20  C   UNL     1      31.056 -20.272 -12.990  1.00  0.00     0.149 C 
ENDBRANCH  15  18
ENDBRANCH   4  12
TORSDOF 2
ENDMDL
MODEL 9
REMARK VINA RESULT:      -7.4      2.028      8.048
REMARK  2 active torsions:
REMARK  status: ('A' for Active; 'I' for Inactive)
REMARK    1  A    between atoms: N_3  and  C_15 
REMARK    2  A    between atoms: C_5  and  C_7 
ROOT
HETATM    1  S   UNL     1      30.222 -16.962  -9.455  1.00  0.00    -0.069 SA
HETATM    2  N   UNL     1      30.886 -19.369  -9.888  1.00  0.00    -0.344 N 
HETATM    3  C   UNL     1      30.736 -19.220  -8.532  1.00  0.00     0.052 A 
HETATM    4  C   UNL     1      30.606 -18.198 -10.556  1.00  0.00     0.087 A 
HETATM    5  C   UNL     1      30.371 -17.949  -8.119  1.00  0.00     0.034 A 
HETATM    6  C   UNL     1      30.936 -20.223  -7.567  1.00  0.00     0.031 A 
HETATM    7  C   UNL     1      30.184 -17.616  -6.780  1.00  0.00     0.028 A 
HETATM    8  C   UNL     1      31.358 -20.634 -10.468  1.00  0.00     0.157 C 
HETATM    9  C   UNL     1      30.375 -18.616  -5.809  1.00  0.00    -0.061 A 
HETATM   10  C   UNL     1      30.752 -19.915  -6.210  1.00  0.00     0.009 A 
HETATM   11  C   UNL     1      30.187 -18.314  -4.352  1.00  0.00     0.048 C 
ENDROOT
BRANCH   4  12
HETATM   12  C   UNL     1      30.578 -17.954 -12.034  1.00  0.00    -0.002 A 
HETATM   13  C   UNL     1      31.197 -16.845 -12.639  1.00  0.00     0.016 A 
HETATM   14  C   UNL     1      31.166 -16.667 -14.025  1.00  0.00     0.030 A 
HETATM   15  C   UNL     1      30.523 -17.598 -14.868  1.00  0.00     0.029 A 
HETATM   16  C   UNL     1      29.923 -18.721 -14.260  1.00  0.00     0.030 A 
HETATM   17  C   UNL     1      29.960 -18.897 -12.874  1.00  0.00     0.016 A 
BRANCH  15  18
HETATM   18  N   UNL     1      30.489 -17.415 -16.300  1.00  0.00    -0.390 N 
HETATM   19  C   UNL     1      30.549 -16.079 -16.879  1.00  0.00     0.149 C 
HETATM   20  C   UNL     1      30.394 -18.562 -17.193  1.00  0.00     0.149 C 
ENDBRANCH  15  18
ENDBRANCH   4  12
TORSDOF 2
ENDMDL
MODEL 10
REMARK VINA RESULT:      -7.3      1.716      2.590
REMARK  2 active torsions:
REMARK  status: ('A' for Active; 'I' for Inactive)
REMARK    1  A    between atoms: N_3  and  C_15 
REMARK    2  A    between atoms: C_5  and  C_7 
ROOT
HETATM    1  S   UNL     1      30.242 -16.933 -11.785  1.00  0.00    -0.069 SA
HETATM    2  N   UNL     1      30.756 -19.354 -11.242  1.00  0.00    -0.344 N 
HETATM    3  C   UNL     1      30.661 -19.249 -12.607  1.00  0.00     0.052 A 
HETATM    4  C   UNL     1      30.574 -18.135 -10.630  1.00  0.00     0.087 A 
HETATM    5  C   UNL     1      30.381 -17.976 -13.078  1.00  0.00     0.034 A 
HETATM    6  C   UNL     1      30.807 -20.302 -13.526  1.00  0.00     0.031 A 
HETATM    7  C   UNL     1      30.242 -17.687 -14.433  1.00  0.00     0.028 A 
HETATM    8  C   UNL     1      30.959 -20.656 -10.592  1.00  0.00     0.157 C 
HETATM    9  C   UNL     1      30.392 -18.735 -15.360  1.00  0.00    -0.061 A 
HETATM   10  C   UNL     1      30.673 -20.039 -14.899  1.00  0.00     0.009 A 
HETATM   11  C   UNL     1      30.253 -18.482 -16.831  1.00  0.00     0.048 C 
ENDROOT
BRANCH   4  12
HETATM   12  C   UNL     1      30.669 -17.803  -9.172  1.00  0.00    -0.002 A 
HETATM   13  C   UNL     1      30.070 -18.585  -8.168  1.00  0.00     0.016 A 
HETATM   14  C   UNL     1      30.202 -18.250  -6.817  1.00  0.00     0.030 A 
HETATM   15  C   UNL     1      30.948 -17.123  -6.411  1.00  0.00     0.029 A 
HETATM   16  C   UNL     1      31.566 -16.355  -7.420  1.00  0.00     0.030 A 
HETATM   17  C   UNL     1      31.435 -16.694  -8.769  1.00  0.00     0.016 A 
BRANCH  15  18
HETATM   18  N   UNL     1      31.085 -16.776  -5.016  1.00  0.00    -0.390 N 
HETATM   19  C   UNL     1      30.186 -17.343  -4.019  1.00  0.00     0.149 C 
HETATM   20  C   UNL     1      32.123 -15.853  -4.579  1.00  0.00     0.149 C 
ENDBRANCH  15  18
ENDBRANCH   4  12
TORSDOF 2
ENDMDL
MODEL 11
REMARK VINA RESULT:      -7.3     28.083     30.163
REMARK  2 active torsions:
REMARK  status: ('A' for Active; 'I' for Inactive)
REMARK    1  A    between atoms: N_3  and  C_15 
REMARK    2  A    between atoms: C_5  and  C_7 
ROOT
HETATM    1  S   UNL     1      39.177   7.099 -11.677  1.00  0.00    -0.069 SA
HETATM    2  N   UNL     1      40.586   9.204 -11.732  1.00  0.00    -0.344 N 
HETATM    3  C   UNL     1      40.406   8.862 -10.415  1.00  0.00     0.052 A 
HETATM    4  C   UNL     1      39.981   8.298 -12.574  1.00  0.00     0.087 A 
HETATM    5  C   UNL     1      39.649   7.721 -10.204  1.00  0.00     0.034 A 
HETATM    6  C   UNL     1      40.903   9.569  -9.307  1.00  0.00     0.031 A 
HETATM    7  C   UNL     1      39.359   7.233  -8.933  1.00  0.00     0.028 A 
HETATM    8  C   UNL     1      41.290  10.438 -12.109  1.00  0.00     0.157 C 
HETATM    9  C   UNL     1      39.858   7.932  -7.818  1.00  0.00    -0.061 A 
HETATM   10  C   UNL     1      40.628   9.099  -8.013  1.00  0.00     0.009 A 
HETATM   11  C   UNL     1      39.578   7.452  -6.426  1.00  0.00     0.048 C 
ENDROOT
BRANCH   4  12
HETATM   12  C   UNL     1      40.000   8.263 -14.071  1.00  0.00    -0.002 A 
HETATM   13  C   UNL     1      40.697   9.203 -14.851  1.00  0.00     0.016 A 
HETATM   14  C   UNL     1      40.706   9.120 -16.246  1.00  0.00     0.030 A 
HETATM   15  C   UNL     1      40.025   8.086 -16.923  1.00  0.00     0.029 A 
HETATM   16  C   UNL     1      39.345   7.132 -16.136  1.00  0.00     0.030 A 
HETATM   17  C   UNL     1      39.343   7.215 -14.742  1.00  0.00     0.016 A 
BRANCH  15  18
HETATM   18  N   UNL     1      40.032   8.000 -18.364  1.00  0.00    -0.390 N 
HETATM   19  C   UNL     1      39.022   7.219 -19.066  1.00  0.00     0.149 C 
HETATM   20  C   UNL     1      41.050   8.691 -19.144  1.00  0.00     0.149 C 
ENDBRANCH  15  18
ENDBRANCH   4  12
TORSDOF 2
ENDMDL
MODEL 12
REMARK VINA RESULT:      -7.3     28.134     30.018
REMARK  2 active torsions:
REMARK  status: ('A' for Active; 'I' for Inactive)
REMARK    1  A    between atoms: N_3  and  C_15 
REMARK    2  A    between atoms: C_5  and  C_7 
ROOT
HETATM    1  S   UNL     1      38.852   7.135 -10.408  1.00  0.00    -0.069 SA
HETATM    2  N   UNL     1      40.111   9.328 -10.570  1.00  0.00    -0.344 N 
HETATM    3  C   UNL     1      40.091   8.960  -9.248  1.00  0.00     0.052 A 
HETATM    4  C   UNL     1      39.482   8.394 -11.361  1.00  0.00     0.087 A 
HETATM    5  C   UNL     1      39.434   7.770  -8.980  1.00  0.00     0.034 A 
HETATM    6  C   UNL     1      40.653   9.686  -8.183  1.00  0.00     0.031 A 
HETATM    7  C   UNL     1      39.309   7.250  -7.695  1.00  0.00     0.028 A 
HETATM    8  C   UNL     1      40.692  10.609 -10.995  1.00  0.00     0.157 C 
HETATM    9  C   UNL     1      39.874   7.967  -6.624  1.00  0.00    -0.061 A 
HETATM   10  C   UNL     1      40.544   9.184  -6.876  1.00  0.00     0.009 A 
HETATM   11  C   UNL     1      39.771   7.454  -5.220  1.00  0.00     0.048 C 
ENDROOT
BRANCH   4  12
HETATM   12  C   UNL     1      39.347   8.377 -12.853  1.00  0.00    -0.002 A 
HETATM   13  C   UNL     1      40.290   7.767 -13.700  1.00  0.00     0.016 A 
HETATM   14  C   UNL     1      40.114   7.755 -15.087  1.00  0.00     0.030 A 
HETATM   15  C   UNL     1      38.981   8.345 -15.686  1.00  0.00     0.029 A 
HETATM   16  C   UNL     1      38.026   8.937 -14.831  1.00  0.00     0.030 A 
HETATM   17  C   UNL     1      38.204   8.942 -13.445  1.00  0.00     0.016 A 
BRANCH  15  18
HETATM   18  N   UNL     1      38.798   8.335 -17.118  1.00  0.00    -0.390 N 
HETATM   19  C   UNL     1      37.997   9.361 -17.772  1.00  0.00     0.149 C 
HETATM   20  C   UNL     1      39.411   7.298 -17.937  1.00  0.00     0.149 C 
ENDBRANCH  15  18
ENDBRANCH   4  12
TORSDOF 2
ENDMDL
MODEL 13
REMARK VINA RESULT:      -7.3      4.030      7.085
REMARK  2 active torsions:
REMARK  status: ('A' for Active; 'I' for Inactive)
REMARK    1  A    between atoms: N_3  and  C_15 
REMARK    2  A    between atoms: C_5  and  C_7 
ROOT
HETATM    1  S   UNL     1      30.969 -20.202 -17.779  1.00  0.00    -0.069 SA
HETATM    2  N   UNL     1      30.342 -17.753 -17.613  1.00  0.00    -0.344 N 
HETATM    3  C   UNL     1      30.373 -18.081 -18.945  1.00  0.00     0.052 A 
HETATM    4  C   UNL     1      30.626 -18.842 -16.820  1.00  0.00     0.087 A 
HETATM    5  C   UNL     1      30.704 -19.399 -19.216  1.00  0.00     0.034 A 
HETATM    6  C   UNL     1      30.120 -17.205 -20.015  1.00  0.00     0.031 A 
HETATM    7  C   UNL     1      30.792 -19.904 -20.511  1.00  0.00     0.028 A 
HETATM    8  C   UNL     1      30.095 -16.372 -17.175  1.00  0.00     0.157 C 
HETATM    9  C   UNL     1      30.534 -19.034 -21.587  1.00  0.00    -0.061 A 
HETATM   10  C   UNL     1      30.200 -17.687 -21.331  1.00  0.00     0.009 A 
HETATM   11  C   UNL     1      30.613 -19.523 -23.002  1.00  0.00     0.048 C 
ENDROOT
BRANCH   4  12
HETATM   12  C   UNL     1      30.625 -18.930 -15.324  1.00  0.00    -0.002 A 
HETATM   13  C   UNL     1      30.220 -17.868 -14.496  1.00  0.00     0.016 A 
HETATM   14  C   UNL     1      30.213 -18.000 -13.104  1.00  0.00     0.030 A 
HETATM   15  C   UNL     1      30.602 -19.205 -12.481  1.00  0.00     0.029 A 
HETATM   16  C   UNL     1      30.985 -20.275 -13.317  1.00  0.00     0.030 A 
HETATM   17  C   UNL     1      30.986 -20.141 -14.708  1.00  0.00     0.016 A 
BRANCH  15  18
HETATM   18  N   UNL     1      30.596 -19.343 -11.044  1.00  0.00    -0.390 N 
HETATM   19  C   UNL     1      30.900 -20.624 -10.420  1.00  0.00     0.149 C 
HETATM   20  C   UNL     1      30.284 -18.205 -10.190  1.00  0.00     0.149 C 
ENDBRANCH  15  18
ENDBRANCH   4  12
TORSDOF 2
ENDMDL
MODEL 14
REMARK VINA RESULT:      -7.2     27.897     29.159
REMARK  2 active torsions:
REMARK  status: ('A' for Active; 'I' for Inactive)
REMARK    1  A    between atoms: N_3  and  C_15 
REMARK    2  A    between atoms: C_5  and  C_7 
ROOT
HETATM    1  S   UNL     1      38.824   7.087 -15.018  1.00  0.00    -0.069 SA
HETATM    2  N   UNL     1      40.405   9.058 -14.832  1.00  0.00    -0.344 N 
HETATM    3  C   UNL     1      40.298   8.739 -16.162  1.00  0.00     0.052 A 
HETATM    4  C   UNL     1      39.616   8.241 -14.054  1.00  0.00     0.087 A 
HETATM    5  C   UNL     1      39.461   7.671 -16.444  1.00  0.00     0.034 A 
HETATM    6  C   UNL     1      40.963   9.384 -17.219  1.00  0.00     0.031 A 
HETATM    7  C   UNL     1      39.242   7.205 -17.737  1.00  0.00     0.028 A 
HETATM    8  C   UNL     1      41.324  10.108 -14.372  1.00  0.00     0.157 C 
HETATM    9  C   UNL     1      39.900   7.850 -18.801  1.00  0.00    -0.061 A 
HETATM   10  C   UNL     1      40.759   8.937 -18.534  1.00  0.00     0.009 A 
HETATM   11  C   UNL     1      39.699   7.392 -20.215  1.00  0.00     0.048 C 
ENDROOT
BRANCH   4  12
HETATM   12  C   UNL     1      39.390   8.300 -12.574  1.00  0.00    -0.002 A 
HETATM   13  C   UNL     1      38.937   9.456 -11.914  1.00  0.00     0.016 A 
HETATM   14  C   UNL     1      38.719   9.461 -10.534  1.00  0.00     0.030 A 
HETATM   15  C   UNL     1      38.935   8.305  -9.754  1.00  0.00     0.029 A 
HETATM   16  C   UNL     1      39.367   7.141 -10.424  1.00  0.00     0.030 A 
HETATM   17  C   UNL     1      39.580   7.139 -11.804  1.00  0.00     0.016 A 
BRANCH  15  18
HETATM   18  N   UNL     1      38.710   8.309  -8.328  1.00  0.00    -0.390 N 
HETATM   19  C   UNL     1      37.883   9.337  -7.710  1.00  0.00     0.149 C 
HETATM   20  C   UNL     1      39.307   7.287  -7.479  1.00  0.00     0.149 C 
ENDBRANCH  15  18
ENDBRANCH   4  12
TORSDOF 2
ENDMDL
MODEL 15
REMARK VINA RESULT:      -7.2      4.164     10.168
REMARK  2 active torsions:
REMARK  status: ('A' for Active; 'I' for Inactive)
REMARK    1  A    between atoms: N_3  and  C_15 
REMARK    2  A    between atoms: C_5  and  C_7 
ROOT
HETATM    1  S   UNL     1      30.283 -16.921 -14.296  1.00  0.00    -0.069 SA
HETATM    2  N   UNL     1      30.915 -19.334 -14.740  1.00  0.00    -0.344 N 
HETATM    3  C   UNL     1      30.743 -19.195 -13.386  1.00  0.00     0.052 A 
HETATM    4  C   UNL     1      30.665 -18.153 -15.402  1.00  0.00     0.087 A 
HETATM    5  C   UNL     1      30.391 -17.922 -12.967  1.00  0.00     0.034 A 
HETATM    6  C   UNL     1      30.909 -20.210 -12.427  1.00  0.00     0.031 A 
HETATM    7  C   UNL     1      30.186 -17.599 -11.629  1.00  0.00     0.028 A 
HETATM    8  C   UNL     1      31.376 -20.602 -15.324  1.00  0.00     0.157 C 
HETATM    9  C   UNL     1      30.344 -18.611 -10.663  1.00  0.00    -0.061 A 
HETATM   10  C   UNL     1      30.706 -19.912 -11.070  1.00  0.00     0.009 A 
HETATM   11  C   UNL     1      30.135 -18.319  -9.208  1.00  0.00     0.048 C 
ENDROOT
BRANCH   4  12
HETATM   12  C   UNL     1      30.668 -17.895 -16.878  1.00  0.00    -0.002 A 
HETATM   13  C   UNL     1      31.322 -16.795 -17.462  1.00  0.00     0.016 A 
HETATM   14  C   UNL     1      31.319 -16.605 -18.847  1.00  0.00     0.030 A 
HETATM   15  C   UNL     1      30.668 -17.512 -19.709  1.00  0.00     0.029 A 
HETATM   16  C   UNL     1      30.032 -18.626 -19.121  1.00  0.00     0.030 A 
HETATM   17  C   UNL     1      30.042 -18.816 -17.737  1.00  0.00     0.016 A 
BRANCH  15  18
HETATM   18  N   UNL     1      30.662 -17.315 -21.140  1.00  0.00    -0.390 N 
HETATM   19  C   UNL     1      31.056 -16.036 -21.714  1.00  0.00     0.149 C 
HETATM   20  C   UNL     1      30.262 -18.392 -22.035  1.00  0.00     0.149 C 
ENDBRANCH  15  18
ENDBRANCH   4  12
TORSDOF 2
ENDMDL
MODEL 16
REMARK VINA RESULT:      -7.2     27.928     29.060
REMARK  2 active torsions:
REMARK  status: ('A' for Active; 'I' for Inactive)
REMARK    1  A    between atoms: N_3  and  C_15 
REMARK    2  A    between atoms: C_5  and  C_7 
ROOT
HETATM    1  S   UNL     1      39.341   7.010 -11.255  1.00  0.00    -0.069 SA
HETATM    2  N   UNL     1      40.617   9.199 -11.310  1.00  0.00    -0.344 N 
HETATM    3  C   UNL     1      40.345   8.847 -12.608  1.00  0.00     0.052 A 
HETATM    4  C   UNL     1      40.096   8.285 -10.422  1.00  0.00     0.087 A 
HETATM    5  C   UNL     1      39.644   7.661 -12.760  1.00  0.00     0.034 A 
HETATM    6  C   UNL     1      40.726   9.568 -13.753  1.00  0.00     0.031 A 
HETATM    7  C   UNL     1      39.291   7.148 -14.005  1.00  0.00     0.028 A 
HETATM    8  C   UNL     1      41.429  10.382 -10.996  1.00  0.00     0.157 C 
HETATM    9  C   UNL     1      39.663   7.867 -15.156  1.00  0.00    -0.061 A 
HETATM   10  C   UNL     1      40.380   9.075 -15.022  1.00  0.00     0.009 A 
HETATM   11  C   UNL     1      39.308   7.363 -16.522  1.00  0.00     0.048 C 
ENDROOT
BRANCH   4  12
HETATM   12  C   UNL     1      40.106   8.332  -8.924  1.00  0.00    -0.002 A 
HETATM   13  C   UNL     1      40.732   9.359  -8.195  1.00  0.00     0.016 A 
HETATM   14  C   UNL     1      40.698   9.376  -6.798  1.00  0.00     0.030 A 
HETATM   15  C   UNL     1      40.028   8.371  -6.069  1.00  0.00     0.029 A 
HETATM   16  C   UNL     1      39.382   7.355  -6.805  1.00  0.00     0.030 A 
HETATM   17  C   UNL     1      39.414   7.344  -8.202  1.00  0.00     0.016 A 
BRANCH  15  18
HETATM   18  N   UNL     1      39.994   8.388  -4.626  1.00  0.00    -0.390 N 
HETATM   19  C   UNL     1      40.639   9.460  -3.880  1.00  0.00     0.149 C 
HETATM   20  C   UNL     1      39.315   7.332  -3.887  1.00  0.00     0.149 C 
ENDBRANCH  15  18
ENDBRANCH   4  12
TORSDOF 2
ENDMDL
MODEL 17
REMARK VINA RESULT:      -7.1     28.389     30.742
REMARK  2 active torsions:
REMARK  status: ('A' for Active; 'I' for Inactive)
REMARK    1  A    between atoms: N_3  and  C_15 
REMARK    2  A    between atoms: C_5  and  C_7 
ROOT
HETATM    1  S   UNL     1      38.791   7.159 -15.145  1.00  0.00    -0.069 SA
HETATM    2  N   UNL     1      40.154   9.288 -15.312  1.00  0.00    -0.344 N 
HETATM    3  C   UNL     1      40.117   8.925 -13.990  1.00  0.00     0.052 A 
HETATM    4  C   UNL     1      39.479   8.384 -16.101  1.00  0.00     0.087 A 
HETATM    5  C   UNL     1      39.403   7.768 -13.719  1.00  0.00     0.034 A 
HETATM    6  C   UNL     1      40.715   9.625 -12.927  1.00  0.00     0.031 A 
HETATM    7  C   UNL     1      39.254   7.258 -12.433  1.00  0.00     0.028 A 
HETATM    8  C   UNL     1      40.796  10.539 -15.741  1.00  0.00     0.157 C 
HETATM    9  C   UNL     1      39.855   7.949 -11.364  1.00  0.00    -0.061 A 
HETATM   10  C   UNL     1      40.582   9.131 -11.619  1.00  0.00     0.009 A 
HETATM   11  C   UNL     1      39.728   7.445  -9.958  1.00  0.00     0.048 C 
ENDROOT
BRANCH   4  12
HETATM   12  C   UNL     1      39.343   8.371 -17.593  1.00  0.00    -0.002 A 
HETATM   13  C   UNL     1      40.292   7.775 -18.443  1.00  0.00     0.016 A 
HETATM   14  C   UNL     1      40.114   7.766 -19.830  1.00  0.00     0.030 A 
HETATM   15  C   UNL     1      38.973   8.345 -20.426  1.00  0.00     0.029 A 
HETATM   16  C   UNL     1      38.013   8.922 -19.568  1.00  0.00     0.030 A 
HETATM   17  C   UNL     1      38.192   8.925 -18.182  1.00  0.00     0.016 A 
BRANCH  15  18
HETATM   18  N   UNL     1      38.789   8.337 -21.858  1.00  0.00    -0.390 N 
HETATM   19  C   UNL     1      37.971   9.353 -22.506  1.00  0.00     0.149 C 
HETATM   20  C   UNL     1      39.416   7.312 -22.682  1.00  0.00     0.149 C 
ENDBRANCH  15  18
ENDBRANCH   4  12
TORSDOF 2
ENDMDL
MODEL 18
REMARK VINA RESULT:      -7.1      3.085      5.793
REMARK  2 active torsions:
REMARK  status: ('A' for Active; 'I' for Inactive)
REMARK    1  A    between atoms: N_3  and  C_15 
REMARK    2  A    between atoms: C_5  and  C_7 
ROOT
HETATM    1  S   UNL     1      30.240 -16.942 -16.132  1.00  0.00    -0.069 SA
HETATM    2  N   UNL     1      30.719 -19.393 -15.704  1.00  0.00    -0.344 N 
HETATM    3  C   UNL     1      30.623 -19.223 -17.062  1.00  0.00     0.052 A 
HETATM    4  C   UNL     1      30.556 -18.201 -15.035  1.00  0.00     0.087 A 
HETATM    5  C   UNL     1      30.361 -17.926 -17.473  1.00  0.00     0.034 A 
HETATM    6  C   UNL     1      30.751 -20.235 -18.029  1.00  0.00     0.031 A 
HETATM    7  C   UNL     1      30.223 -17.573 -18.812  1.00  0.00     0.028 A 
HETATM    8  C   UNL     1      30.904 -20.727 -15.114  1.00  0.00     0.157 C 
HETATM    9  C   UNL     1      30.356 -18.579 -19.787  1.00  0.00    -0.061 A 
HETATM   10  C   UNL     1      30.619 -19.907 -19.388  1.00  0.00     0.009 A 
HETATM   11  C   UNL     1      30.218 -18.256 -21.244  1.00  0.00     0.048 C 
ENDROOT
BRANCH   4  12
HETATM   12  C   UNL     1      30.659 -17.938 -13.563  1.00  0.00    -0.002 A 
HETATM   13  C   UNL     1      30.176 -18.832 -12.590  1.00  0.00     0.016 A 
HETATM   14  C   UNL     1      30.313 -18.557 -11.226  1.00  0.00     0.030 A 
HETATM   15  C   UNL     1      30.948 -17.380 -10.777  1.00  0.00     0.029 A 
HETATM   16  C   UNL     1      31.450 -16.497 -11.756  1.00  0.00     0.030 A 
HETATM   17  C   UNL     1      31.316 -16.777 -13.118  1.00  0.00     0.016 A 
BRANCH  15  18
HETATM   18  N   UNL     1      31.089 -17.094  -9.368  1.00  0.00    -0.390 N 
HETATM   19  C   UNL     1      30.427 -17.927  -8.373  1.00  0.00     0.149 C 
HETATM   20  C   UNL     1      31.893 -15.968  -8.916  1.00  0.00     0.149 C 
ENDBRANCH  15  18
ENDBRANCH   4  12
TORSDOF 2
ENDMDL
MODEL 19
REMARK VINA RESULT:      -7.1      1.899      8.378
REMARK  2 active torsions:
REMARK  status: ('A' for Active; 'I' for Inactive)
REMARK    1  A    between atoms: N_3  and  C_15 
REMARK    2  A    between atoms: C_5  and  C_7 
ROOT
HETATM    1  S   UNL     1      30.199 -16.698  -5.786  1.00  0.00    -0.069 SA
HETATM    2  N   UNL     1      30.622 -19.170  -5.423  1.00  0.00    -0.344 N 
HETATM    3  C   UNL     1      30.471 -18.591  -4.188  1.00  0.00     0.052 A 
HETATM    4  C   UNL     1      30.470 -18.246  -6.433  1.00  0.00     0.087 A 
HETATM    5  C   UNL     1      30.230 -17.227  -4.205  1.00  0.00     0.034 A 
HETATM    6  C   UNL     1      30.555 -19.256  -2.952  1.00  0.00     0.031 A 
HETATM    7  C   UNL     1      30.060 -16.477  -3.045  1.00  0.00     0.028 A 
HETATM    8  C   UNL     1      30.971 -20.591  -5.561  1.00  0.00     0.157 C 
HETATM    9  C   UNL     1      30.137 -17.136  -1.804  1.00  0.00    -0.061 A 
HETATM   10  C   UNL     1      30.386 -18.525  -1.766  1.00  0.00     0.009 A 
HETATM   11  C   UNL     1      29.961 -16.378  -0.522  1.00  0.00     0.048 C 
ENDROOT
BRANCH   4  12
HETATM   12  C   UNL     1      30.486 -18.474  -7.913  1.00  0.00    -0.002 A 
HETATM   13  C   UNL     1      30.137 -19.703  -8.502  1.00  0.00     0.016 A 
HETATM   14  C   UNL     1      30.145 -19.866  -9.891  1.00  0.00     0.030 A 
HETATM   15  C   UNL     1      30.494 -18.803 -10.751  1.00  0.00     0.029 A 
HETATM   16  C   UNL     1      30.822 -17.566 -10.157  1.00  0.00     0.030 A 
HETATM   17  C   UNL     1      30.809 -17.406  -8.769  1.00  0.00     0.016 A 
BRANCH  15  18
HETATM   18  N   UNL     1      30.503 -18.971 -12.185  1.00  0.00    -0.390 N 
HETATM   19  C   UNL     1      30.175 -17.857 -13.065  1.00  0.00     0.149 C 
HETATM   20  C   UNL     1      30.840 -20.257 -12.780  1.00  0.00     0.149 C 
ENDBRANCH  15  18
ENDBRANCH   4  12
TORSDOF 2
ENDMDL
