MODEL 1
REMARK VINA RESULT:      -8.1      0.000      0.000
REMARK  2 active torsions:
REMARK  status: ('A' for Active; 'I' for Inactive)
REMARK    1  A    between atoms: N_3  and  C_15 
REMARK    2  A    between atoms: C_5  and  C_7 
ROOT
HETATM    1  S   UNL     1      31.046 -20.514 -15.108  1.00  0.00    -0.069 SA
HETATM    2  N   UNL     1      30.368 -18.073 -15.151  1.00  0.00    -0.344 N 
HETATM    3  C   UNL     1      30.420 -18.510 -16.451  1.00  0.00     0.052 A 
HETATM    4  C   UNL     1      30.666 -19.086 -14.268  1.00  0.00     0.087 A 
HETATM    5  C   UNL     1      30.779 -19.839 -16.609  1.00  0.00     0.034 A 
HETATM    6  C   UNL     1      30.159 -17.731 -17.592  1.00  0.00     0.031 A 
HETATM    7  C   UNL     1      30.890 -20.447 -17.856  1.00  0.00     0.028 A 
HETATM    8  C   UNL     1      30.089 -16.666 -14.831  1.00  0.00     0.157 C 
HETATM    9  C   UNL     1      30.625 -19.675 -19.003  1.00  0.00    -0.061 A 
HETATM   10  C   UNL     1      30.262 -18.319 -18.863  1.00  0.00     0.009 A 
HETATM   11  C   UNL     1      30.729 -20.278 -20.372  1.00  0.00     0.048 C 
ENDROOT
BRANCH   4  12
HETATM   12  C   UNL     1      30.651 -19.049 -12.770  1.00  0.00    -0.002 A 
HETATM   13  C   UNL     1      30.325 -17.895 -12.036  1.00  0.00     0.016 A 
HETATM   14  C   UNL     1      30.302 -17.911 -10.638  1.00  0.00     0.030 A 
HETATM   15  C   UNL     1      30.595 -19.086  -9.915  1.00  0.00     0.029 A 
HETATM   16  C   UNL     1      30.900 -20.247 -10.655  1.00  0.00     0.030 A 
HETATM   17  C   UNL     1      30.917 -20.229 -12.052  1.00  0.00     0.016 A 
BRANCH  15  18
HETATM   18  N   UNL     1      30.573 -19.103  -8.471  1.00  0.00    -0.390 N 
HETATM   19  C   UNL     1      30.290 -17.888  -7.719  1.00  0.00     0.149 C 
HETATM   20  C   UNL     1      30.834 -20.335  -7.739  1.00  0.00     0.149 C 
ENDBRANCH  15  18
ENDBRANCH   4  12
TORSDOF 2
ENDMDL
MODEL 2
REMARK VINA RESULT:      -8.1      2.467      4.584
REMARK  2 active torsions:
REMARK  status: ('A' for Active; 'I' for Inactive)
REMARK    1  A    between atoms: N_3  and  C_15 
REMARK    2  A    between atoms: C_5  and  C_7 
ROOT
HETATM    1  S   UNL     1      31.009 -20.523 -10.515  1.00  0.00    -0.069 SA
HETATM    2  N   UNL     1      30.344 -18.079 -10.573  1.00  0.00    -0.344 N 
HETATM    3  C   UNL     1      30.400 -18.522 -11.870  1.00  0.00     0.052 A 
HETATM    4  C   UNL     1      30.632 -19.090  -9.683  1.00  0.00     0.087 A 
HETATM    5  C   UNL     1      30.753 -19.853 -12.020  1.00  0.00     0.034 A 
HETATM    6  C   UNL     1      30.150 -17.747 -13.016  1.00  0.00     0.031 A 
HETATM    7  C   UNL     1      30.867 -20.468 -13.264  1.00  0.00     0.028 A 
HETATM    8  C   UNL     1      30.071 -16.669 -10.260  1.00  0.00     0.157 C 
HETATM    9  C   UNL     1      30.613 -19.700 -14.416  1.00  0.00    -0.061 A 
HETATM   10  C   UNL     1      30.256 -18.341 -14.284  1.00  0.00     0.009 A 
HETATM   11  C   UNL     1      30.720 -20.309 -15.781  1.00  0.00     0.048 C 
ENDROOT
BRANCH   4  12
HETATM   12  C   UNL     1      30.610 -19.046  -8.186  1.00  0.00    -0.002 A 
HETATM   13  C   UNL     1      30.264 -17.893  -7.459  1.00  0.00     0.016 A 
HETATM   14  C   UNL     1      30.234 -17.903  -6.061  1.00  0.00     0.030 A 
HETATM   15  C   UNL     1      30.540 -19.070  -5.330  1.00  0.00     0.029 A 
HETATM   16  C   UNL     1      30.865 -20.231  -6.064  1.00  0.00     0.030 A 
HETATM   17  C   UNL     1      30.889 -20.218  -7.461  1.00  0.00     0.016 A 
BRANCH  15  18
HETATM   18  N   UNL     1      30.511 -19.081  -3.886  1.00  0.00    -0.390 N 
HETATM   19  C   UNL     1      30.222 -17.863  -3.141  1.00  0.00     0.149 C 
HETATM   20  C   UNL     1      30.771 -20.309  -3.148  1.00  0.00     0.149 C 
ENDBRANCH  15  18
ENDBRANCH   4  12
TORSDOF 2
ENDMDL
MODEL 3
REMARK VINA RESULT:      -8.1      0.086      1.081
REMARK  2 active torsions:
REMARK  status: ('A' for Active; 'I' for Inactive)
REMARK    1  A    between atoms: N_3  and  C_15 
REMARK    2  A    between atoms: C_5  and  C_7 
ROOT
HETATM    1  S   UNL     1      31.058 -20.558 -15.140  1.00  0.00    -0.069 SA
HETATM    2  N   UNL     1      30.341 -18.128 -15.108  1.00  0.00    -0.344 N 
HETATM    3  C   UNL     1      30.411 -18.520 -16.421  1.00  0.00     0.052 A 
HETATM    4  C   UNL     1      30.648 -19.166 -14.256  1.00  0.00     0.087 A 
HETATM    5  C   UNL     1      30.794 -19.837 -16.620  1.00  0.00     0.034 A 
HETATM    6  C   UNL     1      30.149 -17.707 -17.537  1.00  0.00     0.031 A 
HETATM    7  C   UNL     1      30.926 -20.400 -17.886  1.00  0.00     0.028 A 
HETATM    8  C   UNL     1      30.037 -16.737 -14.743  1.00  0.00     0.157 C 
HETATM    9  C   UNL     1      30.659 -19.594 -19.009  1.00  0.00    -0.061 A 
HETATM   10  C   UNL     1      30.272 -18.250 -18.826  1.00  0.00     0.009 A 
HETATM   11  C   UNL     1      30.784 -20.149 -20.396  1.00  0.00     0.048 C 
ENDROOT
BRANCH   4  12
HETATM   12  C   UNL     1      30.619 -19.180 -12.758  1.00  0.00    -0.002 A 
HETATM   13  C   UNL     1      30.935 -20.319 -11.997  1.00  0.00     0.016 A 
HETATM   14  C   UNL     1      30.917 -20.282 -10.600  1.00  0.00     0.030 A 
HETATM   15  C   UNL     1      30.591 -19.100  -9.903  1.00  0.00     0.029 A 
HETATM   16  C   UNL     1      30.297 -17.953 -10.670  1.00  0.00     0.030 A 
HETATM   17  C   UNL     1      30.320 -17.992 -12.066  1.00  0.00     0.016 A 
BRANCH  15  18
HETATM   18  N   UNL     1      30.572 -19.060  -8.460  1.00  0.00    -0.390 N 
HETATM   19  C   UNL     1      30.231 -17.831  -7.756  1.00  0.00     0.149 C 
HETATM   20  C   UNL     1      30.894 -20.248  -7.680  1.00  0.00     0.149 C 
ENDBRANCH  15  18
ENDBRANCH   4  12
TORSDOF 2
ENDMDL
MODEL 4
REMARK VINA RESULT:      -8.1      1.890      8.321
REMARK  2 active torsions:
REMARK  status: ('A' for Active; 'I' for Inactive)
REMARK    1  A    between atoms: N_3  and  C_15 
REMARK    2  A    between atoms: C_5  and  C_7 
ROOT
HETATM    1  S   UNL     1      30.808 -20.501  -9.373  1.00  0.00    -0.069 SA
HETATM    2  N   UNL     1      30.272 -18.025  -9.327  1.00  0.00    -0.344 N 
HETATM    3  C   UNL     1      30.424 -18.438  -8.027  1.00  0.00     0.052 A 
HETATM    4  C   UNL     1      30.483 -19.059 -10.211  1.00  0.00     0.087 A 
HETATM    5  C   UNL     1      30.724 -19.782  -7.871  1.00  0.00     0.034 A 
HETATM    6  C   UNL     1      30.287 -17.630  -6.885  1.00  0.00     0.031 A 
HETATM    7  C   UNL     1      30.904 -20.374  -6.624  1.00  0.00     0.028 A 
HETATM    8  C   UNL     1      29.864 -16.650  -9.646  1.00  0.00     0.157 C 
HETATM    9  C   UNL     1      30.775 -19.571  -5.476  1.00  0.00    -0.061 A 
HETATM   10  C   UNL     1      30.466 -18.201  -5.615  1.00  0.00     0.009 A 
HETATM   11  C   UNL     1      30.959 -20.155  -4.108  1.00  0.00     0.048 C 
ENDROOT
BRANCH   4  12
HETATM   12  C   UNL     1      30.485 -19.017 -11.709  1.00  0.00    -0.002 A 
HETATM   13  C   UNL     1      30.217 -17.847 -12.442  1.00  0.00     0.016 A 
HETATM   14  C   UNL     1      30.251 -17.847 -13.840  1.00  0.00     0.030 A 
HETATM   15  C   UNL     1      30.565 -19.016 -14.564  1.00  0.00     0.029 A 
HETATM   16  C   UNL     1      30.855 -20.182 -13.824  1.00  0.00     0.030 A 
HETATM   17  C   UNL     1      30.824 -20.177 -12.428  1.00  0.00     0.016 A 
BRANCH  15  18
HETATM   18  N   UNL     1      30.599 -19.017 -16.008  1.00  0.00    -0.390 N 
HETATM   19  C   UNL     1      30.329 -17.798 -16.758  1.00  0.00     0.149 C 
HETATM   20  C   UNL     1      30.903 -20.238 -16.742  1.00  0.00     0.149 C 
ENDBRANCH  15  18
ENDBRANCH   4  12
TORSDOF 2
ENDMDL
MODEL 5
REMARK VINA RESULT:      -8.0      2.446      4.834
REMARK  2 active torsions:
REMARK  status: ('A' for Active; 'I' for Inactive)
REMARK    1  A    between atoms: N_3  and  C_15 
REMARK    2  A    between atoms: C_5  and  C_7 
ROOT
HETATM    1  S   UNL     1      31.000 -20.539 -10.513  1.00  0.00    -0.069 SA
HETATM    2  N   UNL     1      30.327 -18.096 -10.475  1.00  0.00    -0.344 N 
HETATM    3  C   UNL     1      30.392 -18.486 -11.789  1.00  0.00     0.052 A 
HETATM    4  C   UNL     1      30.614 -19.141  -9.626  1.00  0.00     0.087 A 
HETATM    5  C   UNL     1      30.751 -19.809 -11.991  1.00  0.00     0.034 A 
HETATM    6  C   UNL     1      30.146 -17.666 -12.904  1.00  0.00     0.031 A 
HETATM    7  C   UNL     1      30.874 -20.372 -13.258  1.00  0.00     0.028 A 
HETATM    8  C   UNL     1      30.049 -16.701 -10.107  1.00  0.00     0.157 C 
HETATM    9  C   UNL     1      30.623 -19.559 -14.379  1.00  0.00    -0.061 A 
HETATM   10  C   UNL     1      30.261 -18.208 -14.194  1.00  0.00     0.009 A 
HETATM   11  C   UNL     1      30.740 -20.113 -15.767  1.00  0.00     0.048 C 
ENDROOT
BRANCH   4  12
HETATM   12  C   UNL     1      30.583 -19.159  -8.128  1.00  0.00    -0.002 A 
HETATM   13  C   UNL     1      30.896 -20.300  -7.369  1.00  0.00     0.016 A 
HETATM   14  C   UNL     1      30.876 -20.266  -5.971  1.00  0.00     0.030 A 
HETATM   15  C   UNL     1      30.552 -19.084  -5.272  1.00  0.00     0.029 A 
HETATM   16  C   UNL     1      30.261 -17.935  -6.038  1.00  0.00     0.030 A 
HETATM   17  C   UNL     1      30.286 -17.972  -7.434  1.00  0.00     0.016 A 
BRANCH  15  18
HETATM   18  N   UNL     1      30.530 -19.048  -3.829  1.00  0.00    -0.390 N 
HETATM   19  C   UNL     1      30.823 -20.245  -3.052  1.00  0.00     0.149 C 
HETATM   20  C   UNL     1      30.214 -17.814  -3.122  1.00  0.00     0.149 C 
ENDBRANCH  15  18
ENDBRANCH   4  12
TORSDOF 2
ENDMDL
MODEL 6
REMARK VINA RESULT:      -8.0      1.722      8.094
REMARK  2 active torsions:
REMARK  status: ('A' for Active; 'I' for Inactive)
REMARK    1  A    between atoms: N_3  and  C_15 
REMARK    2  A    between atoms: C_5  and  C_7 
ROOT
HETATM    1  S   UNL     1      30.880 -20.478 -10.124  1.00  0.00    -0.069 SA
HETATM    2  N   UNL     1      30.294 -18.013 -10.077  1.00  0.00    -0.344 N 
HETATM    3  C   UNL     1      30.437 -18.428  -8.777  1.00  0.00     0.052 A 
HETATM    4  C   UNL     1      30.537 -19.040 -10.962  1.00  0.00     0.087 A 
HETATM    5  C   UNL     1      30.761 -19.767  -8.621  1.00  0.00     0.034 A 
HETATM    6  C   UNL     1      30.269 -17.627  -7.634  1.00  0.00     0.031 A 
HETATM    7  C   UNL     1      30.936 -20.360  -7.374  1.00  0.00     0.028 A 
HETATM    8  C   UNL     1      29.864 -16.645 -10.396  1.00  0.00     0.157 C 
HETATM    9  C   UNL     1      30.776 -19.563  -6.225  1.00  0.00    -0.061 A 
HETATM   10  C   UNL     1      30.442 -18.199  -6.363  1.00  0.00     0.009 A 
HETATM   11  C   UNL     1      30.953 -20.148  -4.856  1.00  0.00     0.048 C 
ENDROOT
BRANCH   4  12
HETATM   12  C   UNL     1      30.558 -18.992 -12.459  1.00  0.00    -0.002 A 
HETATM   13  C   UNL     1      30.942 -17.849 -13.183  1.00  0.00     0.016 A 
HETATM   14  C   UNL     1      30.968 -17.855 -14.581  1.00  0.00     0.030 A 
HETATM   15  C   UNL     1      30.621 -19.009 -15.315  1.00  0.00     0.029 A 
HETATM   16  C   UNL     1      30.259 -20.160 -14.584  1.00  0.00     0.030 A 
HETATM   17  C   UNL     1      30.238 -20.152 -13.187  1.00  0.00     0.016 A 
BRANCH  15  18
HETATM   18  N   UNL     1      30.647 -19.016 -16.759  1.00  0.00    -0.390 N 
HETATM   19  C   UNL     1      30.952 -20.239 -17.489  1.00  0.00     0.149 C 
HETATM   20  C   UNL     1      30.370 -17.800 -17.512  1.00  0.00     0.149 C 
ENDBRANCH  15  18
ENDBRANCH   4  12
TORSDOF 2
ENDMDL
MODEL 7
REMARK VINA RESULT:      -7.8      1.364      2.424
REMARK  2 active torsions:
REMARK  status: ('A' for Active; 'I' for Inactive)
REMARK    1  A    between atoms: N_3  and  C_15 
REMARK    2  A    between atoms: C_5  and  C_7 
ROOT
HETATM    1  S   UNL     1      30.927 -20.251 -12.959  1.00  0.00    -0.069 SA
HETATM    2  N   UNL     1      30.393 -17.778 -12.814  1.00  0.00    -0.344 N 
HETATM    3  C   UNL     1      30.410 -18.119 -14.143  1.00  0.00     0.052 A 
HETATM    4  C   UNL     1      30.637 -18.870 -12.012  1.00  0.00     0.087 A 
HETATM    5  C   UNL     1      30.690 -19.451 -14.403  1.00  0.00     0.034 A 
HETATM    6  C   UNL     1      30.188 -17.243 -15.220  1.00  0.00     0.031 A 
HETATM    7  C   UNL     1      30.756 -19.970 -15.693  1.00  0.00     0.028 A 
HETATM    8  C   UNL     1      30.200 -16.385 -12.387  1.00  0.00     0.157 C 
HETATM    9  C   UNL     1      30.529 -19.101 -16.776  1.00  0.00    -0.061 A 
HETATM   10  C   UNL     1      30.247 -17.740 -16.532  1.00  0.00     0.009 A 
HETATM   11  C   UNL     1      30.587 -19.605 -18.187  1.00  0.00     0.048 C 
ENDROOT
BRANCH   4  12
HETATM   12  C   UNL     1      30.635 -18.944 -10.515  1.00  0.00    -0.002 A 
HETATM   13  C   UNL     1      30.115 -17.924  -9.699  1.00  0.00     0.016 A 
HETATM   14  C   UNL     1      30.113 -18.045  -8.306  1.00  0.00     0.030 A 
HETATM   15  C   UNL     1      30.623 -19.196  -7.670  1.00  0.00     0.029 A 
HETATM   16  C   UNL     1      31.124 -20.226  -8.493  1.00  0.00     0.030 A 
HETATM   17  C   UNL     1      31.121 -20.104  -9.885  1.00  0.00     0.016 A 
BRANCH  15  18
HETATM   18  N   UNL     1      30.623 -19.320  -6.231  1.00  0.00    -0.390 N 
HETATM   19  C   UNL     1      30.891 -20.605  -5.598  1.00  0.00     0.149 C 
HETATM   20  C   UNL     1      30.353 -18.166  -5.386  1.00  0.00     0.149 C 
ENDBRANCH  15  18
ENDBRANCH   4  12
TORSDOF 2
ENDMDL
MODEL 8
REMARK VINA RESULT:      -7.8      1.497      7.742
REMARK  2 active torsions:
REMARK  status: ('A' for Active; 'I' for Inactive)
REMARK    1  A    between atoms: N_3  and  C_15 
REMARK    2  A    between atoms: C_5  and  C_7 
ROOT
HETATM    1  S   UNL     1      30.846 -20.491 -13.773  1.00  0.00    -0.069 SA
HETATM    2  N   UNL     1      30.264 -18.025 -13.749  1.00  0.00    -0.344 N 
HETATM    3  C   UNL     1      30.416 -18.425 -12.446  1.00  0.00     0.052 A 
HETATM    4  C   UNL     1      30.500 -19.061 -14.624  1.00  0.00     0.087 A 
HETATM    5  C   UNL     1      30.740 -19.762 -12.277  1.00  0.00     0.034 A 
HETATM    6  C   UNL     1      30.257 -17.611 -11.310  1.00  0.00     0.031 A 
HETATM    7  C   UNL     1      30.923 -20.342 -11.025  1.00  0.00     0.028 A 
HETATM    8  C   UNL     1      29.833 -16.659 -14.081  1.00  0.00     0.157 C 
HETATM    9  C   UNL     1      30.772 -19.532  -9.884  1.00  0.00    -0.061 A 
HETATM   10  C   UNL     1      30.438 -18.169 -10.035  1.00  0.00     0.009 A 
HETATM   11  C   UNL     1      30.958 -20.103  -8.510  1.00  0.00     0.048 C 
ENDROOT
BRANCH   4  12
HETATM   12  C   UNL     1      30.510 -19.029 -16.122  1.00  0.00    -0.002 A 
HETATM   13  C   UNL     1      30.217 -17.872 -16.866  1.00  0.00     0.016 A 
HETATM   14  C   UNL     1      30.260 -17.881 -18.263  1.00  0.00     0.030 A 
HETATM   15  C   UNL     1      30.607 -19.048 -18.977  1.00  0.00     0.029 A 
HETATM   16  C   UNL     1      30.922 -20.200 -18.227  1.00  0.00     0.030 A 
HETATM   17  C   UNL     1      30.883 -20.186 -16.830  1.00  0.00     0.016 A 
BRANCH  15  18
HETATM   18  N   UNL     1      30.651 -19.059 -20.421  1.00  0.00    -0.390 N 
HETATM   19  C   UNL     1      30.942 -20.289 -21.144  1.00  0.00     0.149 C 
HETATM   20  C   UNL     1      30.406 -17.840 -21.180  1.00  0.00     0.149 C 
ENDBRANCH  15  18
ENDBRANCH   4  12
TORSDOF 2
ENDMDL
MODEL 9
REMARK VINA RESULT:      -7.7      3.119      5.851
REMARK  2 active torsions:
REMARK  status: ('A' for Active; 'I' for Inactive)
REMARK    1  A    between atoms: N_3  and  C_15 
REMARK    2  A    between atoms: C_5  and  C_7 
ROOT
HETATM    1  S   UNL     1      31.066 -20.456  -9.324  1.00  0.00    -0.069 SA
HETATM    2  N   UNL     1      30.355 -18.024  -9.347  1.00  0.00    -0.344 N 
HETATM    3  C   UNL     1      30.408 -18.451 -10.650  1.00  0.00     0.052 A 
HETATM    4  C   UNL     1      30.670 -19.040  -8.472  1.00  0.00     0.087 A 
HETATM    5  C   UNL     1      30.785 -19.773 -10.819  1.00  0.00     0.034 A 
HETATM    6  C   UNL     1      30.134 -17.667 -11.784  1.00  0.00     0.031 A 
HETATM    7  C   UNL     1      30.900 -20.370 -12.072  1.00  0.00     0.028 A 
HETATM    8  C   UNL     1      30.058 -16.623  -9.015  1.00  0.00     0.157 C 
HETATM    9  C   UNL     1      30.621 -19.594 -13.212  1.00  0.00    -0.061 A 
HETATM   10  C   UNL     1      30.240 -18.244 -13.060  1.00  0.00     0.009 A 
HETATM   11  C   UNL     1      30.728 -20.185 -14.585  1.00  0.00     0.048 C 
ENDROOT
BRANCH   4  12
HETATM   12  C   UNL     1      30.659 -19.014  -6.974  1.00  0.00    -0.002 A 
HETATM   13  C   UNL     1      30.318 -17.871  -6.230  1.00  0.00     0.016 A 
HETATM   14  C   UNL     1      30.300 -17.898  -4.833  1.00  0.00     0.030 A 
HETATM   15  C   UNL     1      30.613 -19.073  -4.119  1.00  0.00     0.029 A 
HETATM   16  C   UNL     1      30.933 -20.225  -4.869  1.00  0.00     0.030 A 
HETATM   17  C   UNL     1      30.946 -20.195  -6.266  1.00  0.00     0.016 A 
BRANCH  15  18
HETATM   18  N   UNL     1      30.596 -19.102  -2.675  1.00  0.00    -0.390 N 
HETATM   19  C   UNL     1      30.919 -20.326  -1.953  1.00  0.00     0.149 C 
HETATM   20  C   UNL     1      30.254 -17.909  -1.913  1.00  0.00     0.149 C 
ENDBRANCH  15  18
ENDBRANCH   4  12
TORSDOF 2
ENDMDL
MODEL 10
REMARK VINA RESULT:      -7.6      1.859      7.986
REMARK  2 active torsions:
REMARK  status: ('A' for Active; 'I' for Inactive)
REMARK    1  A    between atoms: N_3  and  C_15 
REMARK    2  A    between atoms: C_5  and  C_7 
ROOT
HETATM    1  S   UNL     1      30.834 -20.480 -15.074  1.00  0.00    -0.069 SA
HETATM    2  N   UNL     1      30.280 -18.008 -15.024  1.00  0.00    -0.344 N 
HETATM    3  C   UNL     1      30.432 -18.423 -13.725  1.00  0.00     0.052 A 
HETATM    4  C   UNL     1      30.501 -19.038 -15.910  1.00  0.00     0.087 A 
HETATM    5  C   UNL     1      30.741 -19.766 -13.571  1.00  0.00     0.034 A 
HETATM    6  C   UNL     1      30.287 -17.619 -12.581  1.00  0.00     0.031 A 
HETATM    7  C   UNL     1      30.922 -20.360 -12.325  1.00  0.00     0.028 A 
HETATM    8  C   UNL     1      29.864 -16.634 -15.340  1.00  0.00     0.157 C 
HETATM    9  C   UNL     1      30.784 -19.560 -11.175  1.00  0.00    -0.061 A 
HETATM   10  C   UNL     1      30.465 -18.192 -11.311  1.00  0.00     0.009 A 
HETATM   11  C   UNL     1      30.968 -20.146  -9.808  1.00  0.00     0.048 C 
ENDROOT
BRANCH   4  12
HETATM   12  C   UNL     1      30.507 -18.992 -17.407  1.00  0.00    -0.002 A 
HETATM   13  C   UNL     1      30.582 -17.791 -18.136  1.00  0.00     0.016 A 
HETATM   14  C   UNL     1      30.607 -17.796 -19.534  1.00  0.00     0.030 A 
HETATM   15  C   UNL     1      30.567 -19.003 -20.263  1.00  0.00     0.029 A 
HETATM   16  C   UNL     1      30.514 -20.206 -19.528  1.00  0.00     0.030 A 
HETATM   17  C   UNL     1      30.494 -20.198 -18.131  1.00  0.00     0.016 A 
BRANCH  15  18
HETATM   18  N   UNL     1      30.592 -19.008 -21.707  1.00  0.00    -0.390 N 
HETATM   19  C   UNL     1      30.339 -17.785 -22.458  1.00  0.00     0.149 C 
HETATM   20  C   UNL     1      30.869 -20.236 -22.440  1.00  0.00     0.149 C 
ENDBRANCH  15  18
ENDBRANCH   4  12
TORSDOF 2
ENDMDL
MODEL 11
REMARK VINA RESULT:      -7.5      4.067     10.501
REMARK  2 active torsions:
REMARK  status: ('A' for Active; 'I' for Inactive)
REMARK    1  A    between atoms: N_3  and  C_15 
REMARK    2  A    between atoms: C_5  and  C_7 
ROOT
HETATM    1  S   UNL     1      30.901 -20.497  -5.532  1.00  0.00    -0.069 SA
HETATM    2  N   UNL     1      30.286 -18.039  -5.486  1.00  0.00    -0.344 N 
HETATM    3  C   UNL     1      30.426 -18.454  -4.186  1.00  0.00     0.052 A 
HETATM    4  C   UNL     1      30.547 -19.062  -6.371  1.00  0.00     0.087 A 
HETATM    5  C   UNL     1      30.765 -19.788  -4.029  1.00  0.00     0.034 A 
HETATM    6  C   UNL     1      30.241 -17.656  -3.044  1.00  0.00     0.031 A 
HETATM    7  C   UNL     1      30.940 -20.380  -2.781  1.00  0.00     0.028 A 
HETATM    8  C   UNL     1      29.841 -16.676  -5.807  1.00  0.00     0.157 C 
HETATM    9  C   UNL     1      30.762 -19.586  -1.633  1.00  0.00    -0.061 A 
HETATM   10  C   UNL     1      30.413 -18.226  -1.772  1.00  0.00     0.009 A 
HETATM   11  C   UNL     1      30.938 -20.171  -0.264  1.00  0.00     0.048 C 
ENDROOT
BRANCH   4  12
HETATM   12  C   UNL     1      30.577 -19.012  -7.868  1.00  0.00    -0.002 A 
HETATM   13  C   UNL     1      30.891 -17.846  -8.589  1.00  0.00     0.016 A 
HETATM   14  C   UNL     1      30.929 -17.850  -9.987  1.00  0.00     0.030 A 
HETATM   15  C   UNL     1      30.663 -19.024 -10.723  1.00  0.00     0.029 A 
HETATM   16  C   UNL     1      30.370 -20.196  -9.995  1.00  0.00     0.030 A 
HETATM   17  C   UNL     1      30.337 -20.190  -8.598  1.00  0.00     0.016 A 
BRANCH  15  18
HETATM   18  N   UNL     1      30.701 -19.029 -12.167  1.00  0.00    -0.390 N 
HETATM   19  C   UNL     1      30.798 -20.283 -12.902  1.00  0.00     0.149 C 
HETATM   20  C   UNL     1      30.644 -17.781 -12.915  1.00  0.00     0.149 C 
ENDBRANCH  15  18
ENDBRANCH   4  12
TORSDOF 2
ENDMDL
MODEL 12
REMARK VINA RESULT:      -7.5      2.067      8.442
REMARK  2 active torsions:
REMARK  status: ('A' for Active; 'I' for Inactive)
REMARK    1  A    between atoms: N_3  and  C_15 
REMARK    2  A    between atoms: C_5  and  C_7 
ROOT
HETATM    1  S   UNL     1      30.257 -16.943  -9.448  1.00  0.00    -0.069 SA
HETATM    2  N   UNL     1      30.904 -19.357  -9.869  1.00  0.00    -0.344 N 
HETATM    3  C   UNL     1      30.744 -19.203  -8.515  1.00  0.00     0.052 A 
HETATM    4  C   UNL     1      30.639 -18.186 -10.542  1.00  0.00     0.087 A 
HETATM    5  C   UNL     1      30.385 -17.927  -8.108  1.00  0.00     0.034 A 
HETATM    6  C   UNL     1      30.926 -20.205  -7.545  1.00  0.00     0.031 A 
HETATM    7  C   UNL     1      30.190 -17.589  -6.772  1.00  0.00     0.028 A 
HETATM    8  C   UNL     1      31.369 -20.628 -10.441  1.00  0.00     0.157 C 
HETATM    9  C   UNL     1      30.364 -18.588  -5.796  1.00  0.00    -0.061 A 
HETATM   10  C   UNL     1      30.733 -19.892  -6.190  1.00  0.00     0.009 A 
HETATM   11  C   UNL     1      30.165 -18.281  -4.342  1.00  0.00     0.048 C 
ENDROOT
BRANCH   4  12
HETATM   12  C   UNL     1      30.627 -17.946 -12.021  1.00  0.00    -0.002 A 
HETATM   13  C   UNL     1      31.305 -16.874 -12.629  1.00  0.00     0.016 A 
HETATM   14  C   UNL     1      31.286 -16.700 -14.016  1.00  0.00     0.030 A 
HETATM   15  C   UNL     1      30.595 -17.597 -14.856  1.00  0.00     0.029 A 
HETATM   16  C   UNL     1      29.935 -18.684 -14.245  1.00  0.00     0.030 A 
HETATM   17  C   UNL     1      29.960 -18.857 -12.859  1.00  0.00     0.016 A 
BRANCH  15  18
HETATM   18  N   UNL     1      30.573 -17.418 -16.289  1.00  0.00    -0.390 N 
HETATM   19  C   UNL     1      30.378 -18.557 -17.176  1.00  0.00     0.149 C 
HETATM   20  C   UNL     1      30.747 -16.096 -16.875  1.00  0.00     0.149 C 
ENDBRANCH  15  18
ENDBRANCH   4  12
TORSDOF 2
ENDMDL
MODEL 13
REMARK VINA RESULT:      -7.4      2.292      4.498
REMARK  2 active torsions:
REMARK  status: ('A' for Active; 'I' for Inactive)
REMARK    1  A    between atoms: N_3  and  C_15 
REMARK    2  A    between atoms: C_5  and  C_7 
ROOT
HETATM    1  S   UNL     1      30.230 -16.937 -11.653  1.00  0.00    -0.069 SA
HETATM    2  N   UNL     1      30.754 -19.361 -11.133  1.00  0.00    -0.344 N 
HETATM    3  C   UNL     1      30.656 -19.243 -12.496  1.00  0.00     0.052 A 
HETATM    4  C   UNL     1      30.569 -18.147 -10.509  1.00  0.00     0.087 A 
HETATM    5  C   UNL     1      30.370 -17.968 -12.956  1.00  0.00     0.034 A 
HETATM    6  C   UNL     1      30.802 -20.288 -13.425  1.00  0.00     0.031 A 
HETATM    7  C   UNL     1      30.225 -17.668 -14.308  1.00  0.00     0.028 A 
HETATM    8  C   UNL     1      30.964 -20.667 -10.494  1.00  0.00     0.157 C 
HETATM    9  C   UNL     1      30.377 -18.707 -15.244  1.00  0.00    -0.061 A 
HETATM   10  C   UNL     1      30.664 -20.014 -14.795  1.00  0.00     0.009 A 
HETATM   11  C   UNL     1      30.233 -18.442 -16.712  1.00  0.00     0.048 C 
ENDROOT
BRANCH   4  12
HETATM   12  C   UNL     1      30.667 -17.827  -9.049  1.00  0.00    -0.002 A 
HETATM   13  C   UNL     1      30.092 -18.632  -8.049  1.00  0.00     0.016 A 
HETATM   14  C   UNL     1      30.226 -18.308  -6.695  1.00  0.00     0.030 A 
HETATM   15  C   UNL     1      30.950 -17.169  -6.284  1.00  0.00     0.029 A 
HETATM   16  C   UNL     1      31.544 -16.377  -7.289  1.00  0.00     0.030 A 
HETATM   17  C   UNL     1      31.411 -16.706  -8.640  1.00  0.00     0.016 A 
BRANCH  15  18
HETATM   18  N   UNL     1      31.088 -16.833  -4.886  1.00  0.00    -0.390 N 
HETATM   19  C   UNL     1      30.175 -17.387  -3.896  1.00  0.00     0.149 C 
HETATM   20  C   UNL     1      32.143 -15.932  -4.440  1.00  0.00     0.149 C 
ENDBRANCH  15  18
ENDBRANCH   4  12
TORSDOF 2
ENDMDL
MODEL 14
REMARK VINA RESULT:      -7.3     27.899     29.962
REMARK  2 active torsions:
REMARK  status: ('A' for Active; 'I' for Inactive)
REMARK    1  A    between atoms: N_3  and  C_15 
REMARK    2  A    between atoms: C_5  and  C_7 
ROOT
HETATM    1  S   UNL     1      39.172   7.102 -11.681  1.00  0.00    -0.069 SA
HETATM    2  N   UNL     1      40.590   9.201 -11.735  1.00  0.00    -0.344 N 
HETATM    3  C   UNL     1      40.408   8.860 -10.418  1.00  0.00     0.052 A 
HETATM    4  C   UNL     1      39.982   8.298 -12.577  1.00  0.00     0.087 A 
HETATM    5  C   UNL     1      39.646   7.722 -10.208  1.00  0.00     0.034 A 
HETATM    6  C   UNL     1      40.907   9.564  -9.309  1.00  0.00     0.031 A 
HETATM    7  C   UNL     1      39.354   7.234  -8.937  1.00  0.00     0.028 A 
HETATM    8  C   UNL     1      41.299  10.432 -12.111  1.00  0.00     0.157 C 
HETATM    9  C   UNL     1      39.855   7.931  -7.821  1.00  0.00    -0.061 A 
HETATM   10  C   UNL     1      40.629   9.094  -8.015  1.00  0.00     0.009 A 
HETATM   11  C   UNL     1      39.572   7.451  -6.429  1.00  0.00     0.048 C 
ENDROOT
BRANCH   4  12
HETATM   12  C   UNL     1      40.001   8.264 -14.075  1.00  0.00    -0.002 A 
HETATM   13  C   UNL     1      40.698   9.205 -14.853  1.00  0.00     0.016 A 
HETATM   14  C   UNL     1      40.707   9.122 -16.249  1.00  0.00     0.030 A 
HETATM   15  C   UNL     1      40.027   8.088 -16.926  1.00  0.00     0.029 A 
HETATM   16  C   UNL     1      39.347   7.133 -16.140  1.00  0.00     0.030 A 
HETATM   17  C   UNL     1      39.344   7.216 -14.746  1.00  0.00     0.016 A 
BRANCH  15  18
HETATM   18  N   UNL     1      40.035   8.003 -18.367  1.00  0.00    -0.390 N 
HETATM   19  C   UNL     1      41.049   8.701 -19.146  1.00  0.00     0.149 C 
HETATM   20  C   UNL     1      39.029   7.219 -19.070  1.00  0.00     0.149 C 
ENDBRANCH  15  18
ENDBRANCH   4  12
TORSDOF 2
ENDMDL
MODEL 15
REMARK VINA RESULT:      -7.3     28.051     30.016
REMARK  2 active torsions:
REMARK  status: ('A' for Active; 'I' for Inactive)
REMARK    1  A    between atoms: N_3  and  C_15 
REMARK    2  A    between atoms: C_5  and  C_7 
ROOT
HETATM    1  S   UNL     1      38.837   7.148 -10.275  1.00  0.00    -0.069 SA
HETATM    2  N   UNL     1      40.109   9.334 -10.437  1.00  0.00    -0.344 N 
HETATM    3  C   UNL     1      40.088   8.966  -9.115  1.00  0.00     0.052 A 
HETATM    4  C   UNL     1      39.473   8.403 -11.228  1.00  0.00     0.087 A 
HETATM    5  C   UNL     1      39.424   7.779  -8.848  1.00  0.00     0.034 A 
HETATM    6  C   UNL     1      40.655   9.688  -8.051  1.00  0.00     0.031 A 
HETATM    7  C   UNL     1      39.297   7.260  -7.562  1.00  0.00     0.028 A 
HETATM    8  C   UNL     1      40.697  10.612 -10.863  1.00  0.00     0.157 C 
HETATM    9  C   UNL     1      39.868   7.973  -6.492  1.00  0.00    -0.061 A 
HETATM   10  C   UNL     1      40.544   9.186  -6.744  1.00  0.00     0.009 A 
HETATM   11  C   UNL     1      39.762   7.461  -5.088  1.00  0.00     0.048 C 
ENDROOT
BRANCH   4  12
HETATM   12  C   UNL     1      39.337   8.388 -12.720  1.00  0.00    -0.002 A 
HETATM   13  C   UNL     1      40.269   7.762 -13.567  1.00  0.00     0.016 A 
HETATM   14  C   UNL     1      40.091   7.752 -14.954  1.00  0.00     0.030 A 
HETATM   15  C   UNL     1      38.968   8.361 -15.553  1.00  0.00     0.029 A 
HETATM   16  C   UNL     1      38.024   8.968 -14.698  1.00  0.00     0.030 A 
HETATM   17  C   UNL     1      38.203   8.972 -13.312  1.00  0.00     0.016 A 
BRANCH  15  18
HETATM   18  N   UNL     1      38.784   8.352 -16.985  1.00  0.00    -0.390 N 
HETATM   19  C   UNL     1      39.395   7.315 -17.805  1.00  0.00     0.149 C 
HETATM   20  C   UNL     1      37.986   9.381 -17.637  1.00  0.00     0.149 C 
ENDBRANCH  15  18
ENDBRANCH   4  12
TORSDOF 2
ENDMDL
MODEL 16
REMARK VINA RESULT:      -7.3     27.823     28.825
REMARK  2 active torsions:
REMARK  status: ('A' for Active; 'I' for Inactive)
REMARK    1  A    between atoms: N_3  and  C_15 
REMARK    2  A    between atoms: C_5  and  C_7 
ROOT
HETATM    1  S   UNL     1      38.795   7.099 -15.152  1.00  0.00    -0.069 SA
HETATM    2  N   UNL     1      40.396   9.055 -14.970  1.00  0.00    -0.344 N 
HETATM    3  C   UNL     1      40.286   8.734 -16.300  1.00  0.00     0.052 A 
HETATM    4  C   UNL     1      39.598   8.248 -14.191  1.00  0.00     0.087 A 
HETATM    5  C   UNL     1      39.439   7.673 -16.579  1.00  0.00     0.034 A 
HETATM    6  C   UNL     1      40.959   9.370 -17.358  1.00  0.00     0.031 A 
HETATM    7  C   UNL     1      39.216   7.207 -17.872  1.00  0.00     0.028 A 
HETATM    8  C   UNL     1      41.324  10.098 -14.512  1.00  0.00     0.157 C 
HETATM    9  C   UNL     1      39.881   7.842 -18.937  1.00  0.00    -0.061 A 
HETATM   10  C   UNL     1      40.750   8.921 -18.672  1.00  0.00     0.009 A 
HETATM   11  C   UNL     1      39.677   7.382 -20.349  1.00  0.00     0.048 C 
ENDROOT
BRANCH   4  12
HETATM   12  C   UNL     1      39.371   8.313 -12.711  1.00  0.00    -0.002 A 
HETATM   13  C   UNL     1      38.938   9.478 -12.053  1.00  0.00     0.016 A 
HETATM   14  C   UNL     1      38.718   9.488 -10.673  1.00  0.00     0.030 A 
HETATM   15  C   UNL     1      38.913   8.329  -9.892  1.00  0.00     0.029 A 
HETATM   16  C   UNL     1      39.326   7.157 -10.559  1.00  0.00     0.030 A 
HETATM   17  C   UNL     1      39.541   7.149 -11.939  1.00  0.00     0.016 A 
BRANCH  15  18
HETATM   18  N   UNL     1      38.687   8.339  -8.465  1.00  0.00    -0.390 N 
HETATM   19  C   UNL     1      37.876   9.381  -7.850  1.00  0.00     0.149 C 
HETATM   20  C   UNL     1      39.266   7.309  -7.615  1.00  0.00     0.149 C 
ENDBRANCH  15  18
ENDBRANCH   4  12
TORSDOF 2
ENDMDL
MODEL 17
REMARK VINA RESULT:      -7.2      2.107      8.091
REMARK  2 active torsions:
REMARK  status: ('A' for Active; 'I' for Inactive)
REMARK    1  A    between atoms: N_3  and  C_15 
REMARK    2  A    between atoms: C_5  and  C_7 
ROOT
HETATM    1  S   UNL     1      30.218 -16.967 -14.352  1.00  0.00    -0.069 SA
HETATM    2  N   UNL     1      30.881 -19.374 -14.785  1.00  0.00    -0.344 N 
HETATM    3  C   UNL     1      30.739 -19.223 -13.429  1.00  0.00     0.052 A 
HETATM    4  C   UNL     1      30.596 -18.205 -15.454  1.00  0.00     0.087 A 
HETATM    5  C   UNL     1      30.374 -17.951 -13.016  1.00  0.00     0.034 A 
HETATM    6  C   UNL     1      30.944 -20.224 -12.464  1.00  0.00     0.031 A 
HETATM    7  C   UNL     1      30.194 -17.617 -11.676  1.00  0.00     0.028 A 
HETATM    8  C   UNL     1      31.351 -20.640 -15.366  1.00  0.00     0.157 C 
HETATM    9  C   UNL     1      30.392 -18.615 -10.704  1.00  0.00    -0.061 A 
HETATM   10  C   UNL     1      30.767 -19.915 -11.105  1.00  0.00     0.009 A 
HETATM   11  C   UNL     1      30.211 -18.311  -9.248  1.00  0.00     0.048 C 
ENDROOT
BRANCH   4  12
HETATM   12  C   UNL     1      30.561 -17.963 -16.932  1.00  0.00    -0.002 A 
HETATM   13  C   UNL     1      31.168 -16.850 -17.541  1.00  0.00     0.016 A 
HETATM   14  C   UNL     1      31.130 -16.675 -18.927  1.00  0.00     0.030 A 
HETATM   15  C   UNL     1      30.491 -17.612 -19.766  1.00  0.00     0.029 A 
HETATM   16  C   UNL     1      29.902 -18.739 -19.154  1.00  0.00     0.030 A 
HETATM   17  C   UNL     1      29.946 -18.912 -17.768  1.00  0.00     0.016 A 
BRANCH  15  18
HETATM   18  N   UNL     1      30.450 -17.431 -21.199  1.00  0.00    -0.390 N 
HETATM   19  C   UNL     1      30.367 -16.096 -21.776  1.00  0.00     0.149 C 
HETATM   20  C   UNL     1      30.490 -18.580 -22.093  1.00  0.00     0.149 C 
ENDBRANCH  15  18
ENDBRANCH   4  12
TORSDOF 2
ENDMDL
MODEL 18
REMARK VINA RESULT:      -7.1      4.120     10.683
REMARK  2 active torsions:
REMARK  status: ('A' for Active; 'I' for Inactive)
REMARK    1  A    between atoms: N_3  and  C_15 
REMARK    2  A    between atoms: C_5  and  C_7 
ROOT
HETATM    1  S   UNL     1      30.186 -16.711  -5.784  1.00  0.00    -0.069 SA
HETATM    2  N   UNL     1      30.627 -19.181  -5.424  1.00  0.00    -0.344 N 
HETATM    3  C   UNL     1      30.472 -18.605  -4.188  1.00  0.00     0.052 A 
HETATM    4  C   UNL     1      30.468 -18.257  -6.432  1.00  0.00     0.087 A 
HETATM    5  C   UNL     1      30.221 -17.242  -4.204  1.00  0.00     0.034 A 
HETATM    6  C   UNL     1      30.561 -19.270  -2.953  1.00  0.00     0.031 A 
HETATM    7  C   UNL     1      30.045 -16.494  -3.043  1.00  0.00     0.028 A 
HETATM    8  C   UNL     1      30.987 -20.599  -5.563  1.00  0.00     0.157 C 
HETATM    9  C   UNL     1      30.128 -17.154  -1.803  1.00  0.00    -0.061 A 
HETATM   10  C   UNL     1      30.387 -18.541  -1.766  1.00  0.00     0.009 A 
HETATM   11  C   UNL     1      29.946 -16.399  -0.520  1.00  0.00     0.048 C 
ENDROOT
BRANCH   4  12
HETATM   12  C   UNL     1      30.486 -18.484  -7.913  1.00  0.00    -0.002 A 
HETATM   13  C   UNL     1      30.211 -19.732  -8.500  1.00  0.00     0.016 A 
HETATM   14  C   UNL     1      30.217 -19.894  -9.889  1.00  0.00     0.030 A 
HETATM   15  C   UNL     1      30.490 -18.812 -10.751  1.00  0.00     0.029 A 
HETATM   16  C   UNL     1      30.743 -17.556 -10.159  1.00  0.00     0.030 A 
HETATM   17  C   UNL     1      30.732 -17.397  -8.771  1.00  0.00     0.016 A 
BRANCH  15  18
HETATM   18  N   UNL     1      30.497 -18.979 -12.186  1.00  0.00    -0.390 N 
HETATM   19  C   UNL     1      30.822 -20.268 -12.781  1.00  0.00     0.149 C 
HETATM   20  C   UNL     1      30.183 -17.861 -13.065  1.00  0.00     0.149 C 
ENDBRANCH  15  18
ENDBRANCH   4  12
TORSDOF 2
ENDMDL
