MODEL 1
REMARK VINA RESULT:      -4.9      0.000      0.000
REMARK  15 active torsions:
REMARK  status: ('A' for Active; 'I' for Inactive)
REMARK    1  A    between atoms: O_1  and  C_18 
REMARK    2  A    between atoms: C_3  and  C_4 
REMARK    3  A    between atoms: C_3  and  C_5 
REMARK    4  A    between atoms: C_4  and  C_6 
REMARK    5  A    between atoms: C_5  and  C_7 
REMARK    6  A    between atoms: C_6  and  C_8 
REMARK    7  A    between atoms: C_7  and  C_9 
REMARK    8  A    between atoms: C_8  and  C_10 
REMARK    9  A    between atoms: C_9  and  C_11 
REMARK   10  A    between atoms: C_10  and  C_12 
REMARK   11  A    between atoms: C_11  and  C_13 
REMARK   12  A    between atoms: C_12  and  C_14 
REMARK   13  A    between atoms: C_13  and  C_15 
REMARK   14  A    between atoms: C_14  and  C_16 
REMARK   15  A    between atoms: C_16  and  C_18 
ROOT
HETATM    1  O   UNL     1      38.756   6.095 -20.041  1.00  0.00    -0.776 OA
HETATM    2  H   UNL     1      37.791   6.024 -20.022  1.00  0.00     0.167 HD
ENDROOT
BRANCH   1   3
HETATM    3  C   UNL     1      39.382   6.948 -20.879  1.00  0.00     0.139 C 
HETATM    4  O   UNL     1      39.491   6.666 -22.064  1.00  0.00    -0.650 OA
BRANCH   3   5
HETATM    5  C   UNL     1      39.934   8.238 -20.329  1.00  0.00     0.110 C 
BRANCH   5   6
HETATM    6  C   UNL     1      40.725   8.048 -19.026  1.00  0.00     0.010 C 
BRANCH   6   7
HETATM    7  C   UNL     1      39.909   8.515 -17.815  1.00  0.00     0.001 C 
BRANCH   7   8
HETATM    8  C   UNL     1      39.318   7.320 -17.056  1.00  0.00     0.000 C 
BRANCH   8   9
HETATM    9  C   UNL     1      39.655   7.395 -15.562  1.00  0.00     0.000 C 
BRANCH   9  10
HETATM   10  C   UNL     1      40.479   8.649 -15.246  1.00  0.00     0.000 C 
BRANCH  10  11
HETATM   11  C   UNL     1      39.886   9.410 -14.055  1.00  0.00     0.000 C 
BRANCH  11  12
HETATM   12  C   UNL     1      39.541   8.455 -12.906  1.00  0.00     0.000 C 
BRANCH  12  13
HETATM   13  C   UNL     1      38.952   9.217 -11.714  1.00  0.00     0.000 C 
BRANCH  13  14
HETATM   14  C   UNL     1      37.945   8.349 -10.949  1.00  0.00     0.000 C 
BRANCH  14  15
HETATM   15  C   UNL     1      38.647   7.180 -10.247  1.00  0.00     0.000 C 
BRANCH  15  16
HETATM   16  C   UNL     1      38.930   7.511  -8.777  1.00  0.00     0.000 C 
BRANCH  16  17
HETATM   17  C   UNL     1      40.413   7.833  -8.561  1.00  0.00    -0.000 C 
BRANCH  17  18
HETATM   18  C   UNL     1      40.610   9.313  -8.213  1.00  0.00    -0.005 C 
HETATM   19  C   UNL     1      41.785   9.908  -8.983  1.00  0.00     0.005 C 
ENDBRANCH  17  18
ENDBRANCH  16  17
ENDBRANCH  15  16
ENDBRANCH  14  15
ENDBRANCH  13  14
ENDBRANCH  12  13
ENDBRANCH  11  12
ENDBRANCH  10  11
ENDBRANCH   9  10
ENDBRANCH   8   9
ENDBRANCH   7   8
ENDBRANCH   6   7
ENDBRANCH   5   6
ENDBRANCH   3   5
ENDBRANCH   1   3
TORSDOF 15
ENDMDL
MODEL 2
REMARK VINA RESULT:      -4.9      5.449      9.954
REMARK  15 active torsions:
REMARK  status: ('A' for Active; 'I' for Inactive)
REMARK    1  A    between atoms: O_1  and  C_18 
REMARK    2  A    between atoms: C_3  and  C_4 
REMARK    3  A    between atoms: C_3  and  C_5 
REMARK    4  A    between atoms: C_4  and  C_6 
REMARK    5  A    between atoms: C_5  and  C_7 
REMARK    6  A    between atoms: C_6  and  C_8 
REMARK    7  A    between atoms: C_7  and  C_9 
REMARK    8  A    between atoms: C_8  and  C_10 
REMARK    9  A    between atoms: C_9  and  C_11 
REMARK   10  A    between atoms: C_10  and  C_12 
REMARK   11  A    between atoms: C_11  and  C_13 
REMARK   12  A    between atoms: C_12  and  C_14 
REMARK   13  A    between atoms: C_13  and  C_15 
REMARK   14  A    between atoms: C_14  and  C_16 
REMARK   15  A    between atoms: C_16  and  C_18 
ROOT
HETATM    1  O   UNL     1      38.818   6.264  -5.269  1.00  0.00    -0.776 OA
HETATM    2  H   UNL     1      38.312   5.542  -5.668  1.00  0.00     0.167 HD
ENDROOT
BRANCH   1   3
HETATM    3  C   UNL     1      39.471   7.170  -6.027  1.00  0.00     0.139 C 
HETATM    4  O   UNL     1      40.242   7.959  -5.501  1.00  0.00    -0.650 OA
BRANCH   3   5
HETATM    5  C   UNL     1      39.231   7.185  -7.515  1.00  0.00     0.110 C 
BRANCH   5   6
HETATM    6  C   UNL     1      38.702   8.534  -8.027  1.00  0.00     0.010 C 
BRANCH   6   7
HETATM    7  C   UNL     1      38.442   8.485  -9.536  1.00  0.00     0.001 C 
BRANCH   7   8
HETATM    8  C   UNL     1      39.275   9.541 -10.273  1.00  0.00     0.000 C 
BRANCH   8   9
HETATM    9  C   UNL     1      40.054   8.915 -11.436  1.00  0.00     0.000 C 
BRANCH   9  10
HETATM   10  C   UNL     1      39.530   7.510 -11.755  1.00  0.00     0.000 C 
BRANCH  10  11
HETATM   11  C   UNL     1      39.452   7.284 -13.270  1.00  0.00     0.000 C 
BRANCH  11  12
HETATM   12  C   UNL     1      38.465   8.259 -13.922  1.00  0.00     0.000 C 
BRANCH  12  13
HETATM   13  C   UNL     1      38.061   7.780 -15.321  1.00  0.00     0.000 C 
BRANCH  13  14
HETATM   14  C   UNL     1      39.233   7.083 -16.023  1.00  0.00     0.000 C 
BRANCH  14  15
HETATM   15  C   UNL     1      39.712   7.894 -17.233  1.00  0.00     0.000 C 
BRANCH  15  16
HETATM   16  C   UNL     1      38.534   8.572 -17.942  1.00  0.00     0.000 C 
BRANCH  16  17
HETATM   17  C   UNL     1      38.904   8.957 -19.379  1.00  0.00    -0.000 C 
BRANCH  17  18
HETATM   18  C   UNL     1      38.216   8.033 -20.390  1.00  0.00    -0.005 C 
HETATM   19  C   UNL     1      39.168   6.945 -20.879  1.00  0.00     0.005 C 
ENDBRANCH  17  18
ENDBRANCH  16  17
ENDBRANCH  15  16
ENDBRANCH  14  15
ENDBRANCH  13  14
ENDBRANCH  12  13
ENDBRANCH  11  12
ENDBRANCH  10  11
ENDBRANCH   9  10
ENDBRANCH   8   9
ENDBRANCH   7   8
ENDBRANCH   6   7
ENDBRANCH   5   6
ENDBRANCH   3   5
ENDBRANCH   1   3
TORSDOF 15
ENDMDL
MODEL 3
REMARK VINA RESULT:      -4.7     25.726     27.193
REMARK  15 active torsions:
REMARK  status: ('A' for Active; 'I' for Inactive)
REMARK    1  A    between atoms: O_1  and  C_18 
REMARK    2  A    between atoms: C_3  and  C_4 
REMARK    3  A    between atoms: C_3  and  C_5 
REMARK    4  A    between atoms: C_4  and  C_6 
REMARK    5  A    between atoms: C_5  and  C_7 
REMARK    6  A    between atoms: C_6  and  C_8 
REMARK    7  A    between atoms: C_7  and  C_9 
REMARK    8  A    between atoms: C_8  and  C_10 
REMARK    9  A    between atoms: C_9  and  C_11 
REMARK   10  A    between atoms: C_10  and  C_12 
REMARK   11  A    between atoms: C_11  and  C_13 
REMARK   12  A    between atoms: C_12  and  C_14 
REMARK   13  A    between atoms: C_13  and  C_15 
REMARK   14  A    between atoms: C_14  and  C_16 
REMARK   15  A    between atoms: C_16  and  C_18 
ROOT
HETATM    1  O   UNL     1      32.468 -20.449 -14.628  1.00  0.00    -0.776 OA
HETATM    2  H   UNL     1      33.144 -21.075 -14.924  1.00  0.00     0.167 HD
ENDROOT
BRANCH   1   3
HETATM    3  C   UNL     1      31.168 -20.610 -14.957  1.00  0.00     0.139 C 
HETATM    4  O   UNL     1      30.867 -20.959 -16.089  1.00  0.00    -0.650 OA
BRANCH   3   5
HETATM    5  C   UNL     1      30.114 -20.355 -13.911  1.00  0.00     0.110 C 
BRANCH   5   6
HETATM    6  C   UNL     1      30.692 -20.197 -12.497  1.00  0.00     0.010 C 
BRANCH   6   7
HETATM    7  C   UNL     1      30.507 -18.765 -11.984  1.00  0.00     0.001 C 
BRANCH   7   8
HETATM    8  C   UNL     1      30.077 -17.825 -13.118  1.00  0.00     0.000 C 
BRANCH   8   9
HETATM    9  C   UNL     1      31.148 -16.760 -13.386  1.00  0.00     0.000 C 
BRANCH   9  10
HETATM   10  C   UNL     1      31.398 -16.599 -14.890  1.00  0.00     0.000 C 
BRANCH  10  11
HETATM   11  C   UNL     1      30.227 -17.160 -15.706  1.00  0.00     0.000 C 
BRANCH  11  12
HETATM   12  C   UNL     1      29.979 -16.320 -16.964  1.00  0.00     0.000 C 
BRANCH  12  13
HETATM   13  C   UNL     1      30.602 -14.926 -16.828  1.00  0.00     0.000 C 
BRANCH  13  14
HETATM   14  C   UNL     1      29.558 -13.830 -17.076  1.00  0.00     0.000 C 
BRANCH  14  15
HETATM   15  C   UNL     1      28.176 -14.261 -16.569  1.00  0.00     0.000 C 
BRANCH  15  16
HETATM   16  C   UNL     1      27.717 -13.376 -15.404  1.00  0.00     0.000 C 
BRANCH  16  17
HETATM   17  C   UNL     1      28.880 -12.539 -14.858  1.00  0.00    -0.000 C 
BRANCH  17  18
HETATM   18  C   UNL     1      29.389 -13.107 -13.528  1.00  0.00    -0.005 C 
HETATM   19  C   UNL     1      30.909 -13.001 -13.430  1.00  0.00     0.005 C 
ENDBRANCH  17  18
ENDBRANCH  16  17
ENDBRANCH  15  16
ENDBRANCH  14  15
ENDBRANCH  13  14
ENDBRANCH  12  13
ENDBRANCH  11  12
ENDBRANCH  10  11
ENDBRANCH   9  10
ENDBRANCH   8   9
ENDBRANCH   7   8
ENDBRANCH   6   7
ENDBRANCH   5   6
ENDBRANCH   3   5
ENDBRANCH   1   3
TORSDOF 15
ENDMDL
MODEL 4
REMARK VINA RESULT:      -4.6     27.245     28.451
REMARK  15 active torsions:
REMARK  status: ('A' for Active; 'I' for Inactive)
REMARK    1  A    between atoms: O_1  and  C_18 
REMARK    2  A    between atoms: C_3  and  C_4 
REMARK    3  A    between atoms: C_3  and  C_5 
REMARK    4  A    between atoms: C_4  and  C_6 
REMARK    5  A    between atoms: C_5  and  C_7 
REMARK    6  A    between atoms: C_6  and  C_8 
REMARK    7  A    between atoms: C_7  and  C_9 
REMARK    8  A    between atoms: C_8  and  C_10 
REMARK    9  A    between atoms: C_9  and  C_11 
REMARK   10  A    between atoms: C_10  and  C_12 
REMARK   11  A    between atoms: C_11  and  C_13 
REMARK   12  A    between atoms: C_12  and  C_14 
REMARK   13  A    between atoms: C_13  and  C_15 
REMARK   14  A    between atoms: C_14  and  C_16 
REMARK   15  A    between atoms: C_16  and  C_18 
ROOT
HETATM    1  O   UNL     1      31.713 -21.148 -19.877  1.00  0.00    -0.776 OA
HETATM    2  H   UNL     1      32.118 -21.762 -19.248  1.00  0.00     0.167 HD
ENDROOT
BRANCH   1   3
HETATM    3  C   UNL     1      31.028 -20.062 -19.459  1.00  0.00     0.139 C 
HETATM    4  O   UNL     1      31.250 -18.972 -19.967  1.00  0.00    -0.650 OA
BRANCH   3   5
HETATM    5  C   UNL     1      30.000 -20.221 -18.369  1.00  0.00     0.110 C 
BRANCH   5   6
HETATM    6  C   UNL     1      30.400 -19.530 -17.056  1.00  0.00     0.010 C 
BRANCH   6   7
HETATM    7  C   UNL     1      31.283 -20.445 -16.200  1.00  0.00     0.001 C 
BRANCH   7   8
HETATM    8  C   UNL     1      31.221 -20.043 -14.721  1.00  0.00     0.000 C 
BRANCH   8   9
HETATM    9  C   UNL     1      29.814 -19.569 -14.339  1.00  0.00     0.000 C 
BRANCH   9  10
HETATM   10  C   UNL     1      29.876 -18.440 -13.304  1.00  0.00     0.000 C 
BRANCH  10  11
HETATM   11  C   UNL     1      31.302 -17.890 -13.175  1.00  0.00     0.000 C 
BRANCH  11  12
HETATM   12  C   UNL     1      31.289 -16.386 -12.881  1.00  0.00     0.000 C 
BRANCH  12  13
HETATM   13  C   UNL     1      31.720 -16.103 -11.438  1.00  0.00     0.000 C 
BRANCH  13  14
HETATM   14  C   UNL     1      30.512 -15.748 -10.562  1.00  0.00     0.000 C 
BRANCH  14  15
HETATM   15  C   UNL     1      29.947 -16.996  -9.873  1.00  0.00     0.000 C 
BRANCH  15  16
HETATM   16  C   UNL     1      31.067 -17.975  -9.502  1.00  0.00     0.000 C 
BRANCH  16  17
HETATM   17  C   UNL     1      30.590 -18.983  -8.450  1.00  0.00    -0.000 C 
BRANCH  17  18
HETATM   18  C   UNL     1      30.246 -20.330  -9.095  1.00  0.00    -0.005 C 
HETATM   19  C   UNL     1      31.004 -20.522 -10.406  1.00  0.00     0.005 C 
ENDBRANCH  17  18
ENDBRANCH  16  17
ENDBRANCH  15  16
ENDBRANCH  14  15
ENDBRANCH  13  14
ENDBRANCH  12  13
ENDBRANCH  11  12
ENDBRANCH  10  11
ENDBRANCH   9  10
ENDBRANCH   8   9
ENDBRANCH   7   8
ENDBRANCH   6   7
ENDBRANCH   5   6
ENDBRANCH   3   5
ENDBRANCH   1   3
TORSDOF 15
ENDMDL
MODEL 5
REMARK VINA RESULT:      -4.6     27.498     29.823
REMARK  15 active torsions:
REMARK  status: ('A' for Active; 'I' for Inactive)
REMARK    1  A    between atoms: O_1  and  C_18 
REMARK    2  A    between atoms: C_3  and  C_4 
REMARK    3  A    between atoms: C_3  and  C_5 
REMARK    4  A    between atoms: C_4  and  C_6 
REMARK    5  A    between atoms: C_5  and  C_7 
REMARK    6  A    between atoms: C_6  and  C_8 
REMARK    7  A    between atoms: C_7  and  C_9 
REMARK    8  A    between atoms: C_8  and  C_10 
REMARK    9  A    between atoms: C_9  and  C_11 
REMARK   10  A    between atoms: C_10  and  C_12 
REMARK   11  A    between atoms: C_11  and  C_13 
REMARK   12  A    between atoms: C_12  and  C_14 
REMARK   13  A    between atoms: C_13  and  C_15 
REMARK   14  A    between atoms: C_14  and  C_16 
REMARK   15  A    between atoms: C_16  and  C_18 
ROOT
HETATM    1  O   UNL     1      31.865 -21.067  -4.893  1.00  0.00    -0.776 OA
HETATM    2  H   UNL     1      32.119 -21.987  -5.052  1.00  0.00     0.167 HD
ENDROOT
BRANCH   1   3
HETATM    3  C   UNL     1      31.060 -20.401  -5.747  1.00  0.00     0.139 C 
HETATM    4  O   UNL     1      30.991 -20.753  -6.916  1.00  0.00    -0.650 OA
BRANCH   3   5
HETATM    5  C   UNL     1      30.258 -19.233  -5.235  1.00  0.00     0.110 C 
BRANCH   5   6
HETATM    6  C   UNL     1      30.989 -18.431  -4.146  1.00  0.00     0.010 C 
BRANCH   6   7
HETATM    7  C   UNL     1      31.444 -17.068  -4.680  1.00  0.00     0.001 C 
BRANCH   7   8
HETATM    8  C   UNL     1      30.727 -16.724  -5.991  1.00  0.00     0.000 C 
BRANCH   8   9
HETATM    9  C   UNL     1      31.599 -15.825  -6.876  1.00  0.00     0.000 C 
BRANCH   9  10
HETATM   10  C   UNL     1      31.727 -16.402  -8.290  1.00  0.00     0.000 C 
BRANCH  10  11
HETATM   11  C   UNL     1      30.695 -17.511  -8.527  1.00  0.00     0.000 C 
BRANCH  11  12
HETATM   12  C   UNL     1      31.267 -18.613  -9.425  1.00  0.00     0.000 C 
BRANCH  12  13
HETATM   13  C   UNL     1      30.374 -18.844 -10.650  1.00  0.00     0.000 C 
BRANCH  13  14
HETATM   14  C   UNL     1      30.190 -17.548 -11.449  1.00  0.00     0.000 C 
BRANCH  14  15
HETATM   15  C   UNL     1      30.399 -17.790 -12.948  1.00  0.00     0.000 C 
BRANCH  15  16
HETATM   16  C   UNL     1      30.129 -19.255 -13.311  1.00  0.00     0.000 C 
BRANCH  16  17
HETATM   17  C   UNL     1      31.416 -19.956 -13.762  1.00  0.00    -0.000 C 
BRANCH  17  18
HETATM   18  C   UNL     1      31.281 -20.487 -15.194  1.00  0.00    -0.005 C 
HETATM   19  C   UNL     1      30.729 -19.414 -16.129  1.00  0.00     0.005 C 
ENDBRANCH  17  18
ENDBRANCH  16  17
ENDBRANCH  15  16
ENDBRANCH  14  15
ENDBRANCH  13  14
ENDBRANCH  12  13
ENDBRANCH  11  12
ENDBRANCH  10  11
ENDBRANCH   9  10
ENDBRANCH   8   9
ENDBRANCH   7   8
ENDBRANCH   6   7
ENDBRANCH   5   6
ENDBRANCH   3   5
ENDBRANCH   1   3
TORSDOF 15
ENDMDL
MODEL 6
REMARK VINA RESULT:      -4.5      2.753      3.710
REMARK  15 active torsions:
REMARK  status: ('A' for Active; 'I' for Inactive)
REMARK    1  A    between atoms: O_1  and  C_18 
REMARK    2  A    between atoms: C_3  and  C_4 
REMARK    3  A    between atoms: C_3  and  C_5 
REMARK    4  A    between atoms: C_4  and  C_6 
REMARK    5  A    between atoms: C_5  and  C_7 
REMARK    6  A    between atoms: C_6  and  C_8 
REMARK    7  A    between atoms: C_7  and  C_9 
REMARK    8  A    between atoms: C_8  and  C_10 
REMARK    9  A    between atoms: C_9  and  C_11 
REMARK   10  A    between atoms: C_10  and  C_12 
REMARK   11  A    between atoms: C_11  and  C_13 
REMARK   12  A    between atoms: C_12  and  C_14 
REMARK   13  A    between atoms: C_13  and  C_15 
REMARK   14  A    between atoms: C_14  and  C_16 
REMARK   15  A    between atoms: C_16  and  C_18 
ROOT
HETATM    1  O   UNL     1      42.113  12.320 -17.336  1.00  0.00    -0.776 OA
HETATM    2  H   UNL     1      42.239  12.418 -16.382  1.00  0.00     0.167 HD
ENDROOT
BRANCH   1   3
HETATM    3  C   UNL     1      42.209  11.116 -17.939  1.00  0.00     0.139 C 
HETATM    4  O   UNL     1      43.015  10.954 -18.844  1.00  0.00    -0.650 OA
BRANCH   3   5
HETATM    5  C   UNL     1      41.314   9.995 -17.479  1.00  0.00     0.110 C 
BRANCH   5   6
HETATM    6  C   UNL     1      39.883  10.456 -17.162  1.00  0.00     0.010 C 
BRANCH   6   7
HETATM    7  C   UNL     1      38.920   9.265 -17.112  1.00  0.00     0.001 C 
BRANCH   7   8
HETATM    8  C   UNL     1      39.633   7.965 -17.505  1.00  0.00     0.000 C 
BRANCH   8   9
HETATM    9  C   UNL     1      39.375   6.862 -16.471  1.00  0.00     0.000 C 
BRANCH   9  10
HETATM   10  C   UNL     1      38.482   7.372 -15.334  1.00  0.00     0.000 C 
BRANCH  10  11
HETATM   11  C   UNL     1      39.210   7.296 -13.986  1.00  0.00     0.000 C 
BRANCH  11  12
HETATM   12  C   UNL     1      40.578   7.985 -14.059  1.00  0.00     0.000 C 
BRANCH  12  13
HETATM   13  C   UNL     1      40.674   9.126 -13.039  1.00  0.00     0.000 C 
BRANCH  13  14
HETATM   14  C   UNL     1      39.479  10.078 -13.165  1.00  0.00     0.000 C 
BRANCH  14  15
HETATM   15  C   UNL     1      38.828  10.328 -11.799  1.00  0.00     0.000 C 
BRANCH  15  16
HETATM   16  C   UNL     1      37.591   9.442 -11.609  1.00  0.00     0.000 C 
BRANCH  16  17
HETATM   17  C   UNL     1      37.650   8.694 -10.271  1.00  0.00    -0.000 C 
BRANCH  17  18
HETATM   18  C   UNL     1      38.494   7.420 -10.391  1.00  0.00    -0.005 C 
HETATM   19  C   UNL     1      39.767   7.522  -9.555  1.00  0.00     0.005 C 
ENDBRANCH  17  18
ENDBRANCH  16  17
ENDBRANCH  15  16
ENDBRANCH  14  15
ENDBRANCH  13  14
ENDBRANCH  12  13
ENDBRANCH  11  12
ENDBRANCH  10  11
ENDBRANCH   9  10
ENDBRANCH   8   9
ENDBRANCH   7   8
ENDBRANCH   6   7
ENDBRANCH   5   6
ENDBRANCH   3   5
ENDBRANCH   1   3
TORSDOF 15
ENDMDL
MODEL 7
REMARK VINA RESULT:      -4.5     27.620     29.690
REMARK  15 active torsions:
REMARK  status: ('A' for Active; 'I' for Inactive)
REMARK    1  A    between atoms: O_1  and  C_18 
REMARK    2  A    between atoms: C_3  and  C_4 
REMARK    3  A    between atoms: C_3  and  C_5 
REMARK    4  A    between atoms: C_4  and  C_6 
REMARK    5  A    between atoms: C_5  and  C_7 
REMARK    6  A    between atoms: C_6  and  C_8 
REMARK    7  A    between atoms: C_7  and  C_9 
REMARK    8  A    between atoms: C_8  and  C_10 
REMARK    9  A    between atoms: C_9  and  C_11 
REMARK   10  A    between atoms: C_10  and  C_12 
REMARK   11  A    between atoms: C_11  and  C_13 
REMARK   12  A    between atoms: C_12  and  C_14 
REMARK   13  A    between atoms: C_13  and  C_15 
REMARK   14  A    between atoms: C_14  and  C_16 
REMARK   15  A    between atoms: C_16  and  C_18 
ROOT
HETATM    1  O   UNL     1      31.854 -21.168  -5.029  1.00  0.00    -0.776 OA
HETATM    2  H   UNL     1      31.883 -22.129  -4.923  1.00  0.00     0.167 HD
ENDROOT
BRANCH   1   3
HETATM    3  C   UNL     1      30.748 -20.458  -4.721  1.00  0.00     0.139 C 
HETATM    4  O   UNL     1      30.069 -20.780  -3.757  1.00  0.00    -0.650 OA
BRANCH   3   5
HETATM    5  C   UNL     1      30.376 -19.276  -5.580  1.00  0.00     0.110 C 
BRANCH   5   6
HETATM    6  C   UNL     1      30.738 -19.469  -7.060  1.00  0.00     0.010 C 
BRANCH   6   7
HETATM    7  C   UNL     1      30.722 -18.131  -7.808  1.00  0.00     0.001 C 
BRANCH   7   8
HETATM    8  C   UNL     1      31.392 -18.261  -9.182  1.00  0.00     0.000 C 
BRANCH   8   9
HETATM    9  C   UNL     1      30.918 -19.526  -9.908  1.00  0.00     0.000 C 
BRANCH   9  10
HETATM   10  C   UNL     1      30.417 -19.195 -11.318  1.00  0.00     0.000 C 
BRANCH  10  11
HETATM   11  C   UNL     1      30.923 -20.223 -12.338  1.00  0.00     0.000 C 
BRANCH  11  12
HETATM   12  C   UNL     1      30.117 -20.151 -13.640  1.00  0.00     0.000 C 
BRANCH  12  13
HETATM   13  C   UNL     1      30.933 -19.491 -14.757  1.00  0.00     0.000 C 
BRANCH  13  14
HETATM   14  C   UNL     1      30.259 -18.200 -15.240  1.00  0.00     0.000 C 
BRANCH  14  15
HETATM   15  C   UNL     1      31.260 -17.039 -15.280  1.00  0.00     0.000 C 
BRANCH  15  16
HETATM   16  C   UNL     1      31.146 -16.171 -14.021  1.00  0.00     0.000 C 
BRANCH  16  17
HETATM   17  C   UNL     1      29.726 -16.222 -13.445  1.00  0.00    -0.000 C 
BRANCH  17  18
HETATM   18  C   UNL     1      29.494 -15.077 -12.452  1.00  0.00    -0.005 C 
HETATM   19  C   UNL     1      29.526 -15.582 -11.012  1.00  0.00     0.005 C 
ENDBRANCH  17  18
ENDBRANCH  16  17
ENDBRANCH  15  16
ENDBRANCH  14  15
ENDBRANCH  13  14
ENDBRANCH  12  13
ENDBRANCH  11  12
ENDBRANCH  10  11
ENDBRANCH   9  10
ENDBRANCH   8   9
ENDBRANCH   7   8
ENDBRANCH   6   7
ENDBRANCH   5   6
ENDBRANCH   3   5
ENDBRANCH   1   3
TORSDOF 15
ENDMDL
MODEL 8
REMARK VINA RESULT:      -4.5     25.182     26.653
REMARK  15 active torsions:
REMARK  status: ('A' for Active; 'I' for Inactive)
REMARK    1  A    between atoms: O_1  and  C_18 
REMARK    2  A    between atoms: C_3  and  C_4 
REMARK    3  A    between atoms: C_3  and  C_5 
REMARK    4  A    between atoms: C_4  and  C_6 
REMARK    5  A    between atoms: C_5  and  C_7 
REMARK    6  A    between atoms: C_6  and  C_8 
REMARK    7  A    between atoms: C_7  and  C_9 
REMARK    8  A    between atoms: C_8  and  C_10 
REMARK    9  A    between atoms: C_9  and  C_11 
REMARK   10  A    between atoms: C_10  and  C_12 
REMARK   11  A    between atoms: C_11  and  C_13 
REMARK   12  A    between atoms: C_12  and  C_14 
REMARK   13  A    between atoms: C_13  and  C_15 
REMARK   14  A    between atoms: C_14  and  C_16 
REMARK   15  A    between atoms: C_16  and  C_18 
ROOT
HETATM    1  O   UNL     1      29.883 -21.154 -13.874  1.00  0.00    -0.776 OA
HETATM    2  H   UNL     1      29.030 -21.008 -14.304  1.00  0.00     0.167 HD
ENDROOT
BRANCH   1   3
HETATM    3  C   UNL     1      30.415 -20.240 -13.034  1.00  0.00     0.139 C 
HETATM    4  O   UNL     1      30.994 -20.609 -12.023  1.00  0.00    -0.650 OA
BRANCH   3   5
HETATM    5  C   UNL     1      30.280 -18.777 -13.368  1.00  0.00     0.110 C 
BRANCH   5   6
HETATM    6  C   UNL     1      31.151 -18.347 -14.558  1.00  0.00     0.010 C 
BRANCH   6   7
HETATM    7  C   UNL     1      30.314 -18.229 -15.837  1.00  0.00     0.001 C 
BRANCH   7   8
HETATM    8  C   UNL     1      30.174 -16.764 -16.270  1.00  0.00     0.000 C 
BRANCH   8   9
HETATM    9  C   UNL     1      31.522 -16.195 -16.730  1.00  0.00     0.000 C 
BRANCH   9  10
HETATM   10  C   UNL     1      31.756 -14.796 -16.147  1.00  0.00     0.000 C 
BRANCH  10  11
HETATM   11  C   UNL     1      32.379 -14.881 -14.748  1.00  0.00     0.000 C 
BRANCH  11  12
HETATM   12  C   UNL     1      31.538 -14.112 -13.722  1.00  0.00     0.000 C 
BRANCH  12  13
HETATM   13  C   UNL     1      30.606 -15.057 -12.955  1.00  0.00     0.000 C 
BRANCH  13  14
HETATM   14  C   UNL     1      29.137 -14.772 -13.291  1.00  0.00     0.000 C 
BRANCH  14  15
HETATM   15  C   UNL     1      28.941 -13.311 -13.711  1.00  0.00     0.000 C 
BRANCH  15  16
HETATM   16  C   UNL     1      28.170 -13.217 -15.033  1.00  0.00     0.000 C 
BRANCH  16  17
HETATM   17  C   UNL     1      28.767 -12.137 -15.943  1.00  0.00    -0.000 C 
BRANCH  17  18
HETATM   18  C   UNL     1      29.138 -12.716 -17.313  1.00  0.00    -0.005 C 
HETATM   19  C   UNL     1      28.241 -13.896 -17.674  1.00  0.00     0.005 C 
ENDBRANCH  17  18
ENDBRANCH  16  17
ENDBRANCH  15  16
ENDBRANCH  14  15
ENDBRANCH  13  14
ENDBRANCH  12  13
ENDBRANCH  11  12
ENDBRANCH  10  11
ENDBRANCH   9  10
ENDBRANCH   8   9
ENDBRANCH   7   8
ENDBRANCH   6   7
ENDBRANCH   5   6
ENDBRANCH   3   5
ENDBRANCH   1   3
TORSDOF 15
ENDMDL
MODEL 9
REMARK VINA RESULT:      -4.5     27.281     28.817
REMARK  15 active torsions:
REMARK  status: ('A' for Active; 'I' for Inactive)
REMARK    1  A    between atoms: O_1  and  C_18 
REMARK    2  A    between atoms: C_3  and  C_4 
REMARK    3  A    between atoms: C_3  and  C_5 
REMARK    4  A    between atoms: C_4  and  C_6 
REMARK    5  A    between atoms: C_5  and  C_7 
REMARK    6  A    between atoms: C_6  and  C_8 
REMARK    7  A    between atoms: C_7  and  C_9 
REMARK    8  A    between atoms: C_8  and  C_10 
REMARK    9  A    between atoms: C_9  and  C_11 
REMARK   10  A    between atoms: C_10  and  C_12 
REMARK   11  A    between atoms: C_11  and  C_13 
REMARK   12  A    between atoms: C_12  and  C_14 
REMARK   13  A    between atoms: C_13  and  C_15 
REMARK   14  A    between atoms: C_14  and  C_16 
REMARK   15  A    between atoms: C_16  and  C_18 
ROOT
HETATM    1  O   UNL     1      32.641 -20.303 -14.236  1.00  0.00    -0.776 OA
HETATM    2  H   UNL     1      33.374 -20.259 -14.865  1.00  0.00     0.167 HD
ENDROOT
BRANCH   1   3
HETATM    3  C   UNL     1      31.376 -20.539 -14.644  1.00  0.00     0.139 C 
HETATM    4  O   UNL     1      31.172 -20.973 -15.769  1.00  0.00    -0.650 OA
BRANCH   3   5
HETATM    5  C   UNL     1      30.239 -20.260 -13.696  1.00  0.00     0.110 C 
BRANCH   5   6
HETATM    6  C   UNL     1      30.710 -19.795 -12.309  1.00  0.00     0.010 C 
BRANCH   6   7
HETATM    7  C   UNL     1      30.130 -18.418 -11.966  1.00  0.00     0.001 C 
BRANCH   7   8
HETATM    8  C   UNL     1      30.776 -17.850 -10.696  1.00  0.00     0.000 C 
BRANCH   8   9
HETATM    9  C   UNL     1      30.006 -18.287  -9.444  1.00  0.00     0.000 C 
BRANCH   9  10
HETATM   10  C   UNL     1      30.967 -18.723  -8.332  1.00  0.00     0.000 C 
BRANCH  10  11
HETATM   11  C   UNL     1      30.765 -20.202  -7.979  1.00  0.00     0.000 C 
BRANCH  11  12
HETATM   12  C   UNL     1      30.994 -20.448  -6.484  1.00  0.00     0.000 C 
BRANCH  12  13
HETATM   13  C   UNL     1      30.659 -19.199  -5.662  1.00  0.00     0.000 C 
BRANCH  13  14
HETATM   14  C   UNL     1      31.271 -19.283  -4.258  1.00  0.00     0.000 C 
BRANCH  14  15
HETATM   15  C   UNL     1      30.692 -18.200  -3.339  1.00  0.00     0.000 C 
BRANCH  15  16
HETATM   16  C   UNL     1      29.855 -17.193  -4.136  1.00  0.00     0.000 C 
BRANCH  16  17
HETATM   17  C   UNL     1      30.470 -15.790  -4.068  1.00  0.00    -0.000 C 
BRANCH  17  18
HETATM   18  C   UNL     1      29.436 -14.758  -3.602  1.00  0.00    -0.005 C 
HETATM   19  C   UNL     1      29.648 -13.415  -4.296  1.00  0.00     0.005 C 
ENDBRANCH  17  18
ENDBRANCH  16  17
ENDBRANCH  15  16
ENDBRANCH  14  15
ENDBRANCH  13  14
ENDBRANCH  12  13
ENDBRANCH  11  12
ENDBRANCH  10  11
ENDBRANCH   9  10
ENDBRANCH   8   9
ENDBRANCH   7   8
ENDBRANCH   6   7
ENDBRANCH   5   6
ENDBRANCH   3   5
ENDBRANCH   1   3
TORSDOF 15
ENDMDL
MODEL 10
REMARK VINA RESULT:      -4.4     26.233     27.764
REMARK  15 active torsions:
REMARK  status: ('A' for Active; 'I' for Inactive)
REMARK    1  A    between atoms: O_1  and  C_18 
REMARK    2  A    between atoms: C_3  and  C_4 
REMARK    3  A    between atoms: C_3  and  C_5 
REMARK    4  A    between atoms: C_4  and  C_6 
REMARK    5  A    between atoms: C_5  and  C_7 
REMARK    6  A    between atoms: C_6  and  C_8 
REMARK    7  A    between atoms: C_7  and  C_9 
REMARK    8  A    between atoms: C_8  and  C_10 
REMARK    9  A    between atoms: C_9  and  C_11 
REMARK   10  A    between atoms: C_10  and  C_12 
REMARK   11  A    between atoms: C_11  and  C_13 
REMARK   12  A    between atoms: C_12  and  C_14 
REMARK   13  A    between atoms: C_13  and  C_15 
REMARK   14  A    between atoms: C_14  and  C_16 
REMARK   15  A    between atoms: C_16  and  C_18 
ROOT
HETATM    1  O   UNL     1      31.699 -21.233 -14.889  1.00  0.00    -0.776 OA
HETATM    2  H   UNL     1      32.653 -21.358 -14.989  1.00  0.00     0.167 HD
ENDROOT
BRANCH   1   3
HETATM    3  C   UNL     1      31.006 -20.416 -15.710  1.00  0.00     0.139 C 
HETATM    4  O   UNL     1      30.725 -20.787 -16.841  1.00  0.00    -0.650 OA
BRANCH   3   5
HETATM    5  C   UNL     1      30.591 -19.057 -15.207  1.00  0.00     0.110 C 
BRANCH   5   6
HETATM    6  C   UNL     1      29.731 -19.121 -13.936  1.00  0.00     0.010 C 
BRANCH   6   7
HETATM    7  C   UNL     1      30.603 -19.323 -12.692  1.00  0.00     0.001 C 
BRANCH   7   8
HETATM    8  C   UNL     1      30.284 -18.273 -11.620  1.00  0.00     0.000 C 
BRANCH   8   9
HETATM    9  C   UNL     1      30.666 -18.779 -10.224  1.00  0.00     0.000 C 
BRANCH   9  10
HETATM   10  C   UNL     1      29.872 -18.045  -9.137  1.00  0.00     0.000 C 
BRANCH  10  11
HETATM   11  C   UNL     1      30.330 -18.473  -7.737  1.00  0.00     0.000 C 
BRANCH  11  12
HETATM   12  C   UNL     1      30.922 -17.289  -6.964  1.00  0.00     0.000 C 
BRANCH  12  13
HETATM   13  C   UNL     1      29.832 -16.534  -6.194  1.00  0.00     0.000 C 
BRANCH  13  14
HETATM   14  C   UNL     1      29.613 -15.134  -6.780  1.00  0.00     0.000 C 
BRANCH  14  15
HETATM   15  C   UNL     1      30.802 -14.710  -7.652  1.00  0.00     0.000 C 
BRANCH  15  16
HETATM   16  C   UNL     1      30.326 -13.982  -8.914  1.00  0.00     0.000 C 
BRANCH  16  17
HETATM   17  C   UNL     1      28.813 -14.146  -9.107  1.00  0.00    -0.000 C 
BRANCH  17  18
HETATM   18  C   UNL     1      28.503 -14.900 -10.405  1.00  0.00    -0.005 C 
HETATM   19  C   UNL     1      29.591 -14.668 -11.450  1.00  0.00     0.005 C 
ENDBRANCH  17  18
ENDBRANCH  16  17
ENDBRANCH  15  16
ENDBRANCH  14  15
ENDBRANCH  13  14
ENDBRANCH  12  13
ENDBRANCH  11  12
ENDBRANCH  10  11
ENDBRANCH   9  10
ENDBRANCH   8   9
ENDBRANCH   7   8
ENDBRANCH   6   7
ENDBRANCH   5   6
ENDBRANCH   3   5
ENDBRANCH   1   3
TORSDOF 15
ENDMDL
MODEL 11
REMARK VINA RESULT:      -4.4      4.900      9.743
REMARK  15 active torsions:
REMARK  status: ('A' for Active; 'I' for Inactive)
REMARK    1  A    between atoms: O_1  and  C_18 
REMARK    2  A    between atoms: C_3  and  C_4 
REMARK    3  A    between atoms: C_3  and  C_5 
REMARK    4  A    between atoms: C_4  and  C_6 
REMARK    5  A    between atoms: C_5  and  C_7 
REMARK    6  A    between atoms: C_6  and  C_8 
REMARK    7  A    between atoms: C_7  and  C_9 
REMARK    8  A    between atoms: C_8  and  C_10 
REMARK    9  A    between atoms: C_9  and  C_11 
REMARK   10  A    between atoms: C_10  and  C_12 
REMARK   11  A    between atoms: C_11  and  C_13 
REMARK   12  A    between atoms: C_12  and  C_14 
REMARK   13  A    between atoms: C_13  and  C_15 
REMARK   14  A    between atoms: C_14  and  C_16 
REMARK   15  A    between atoms: C_16  and  C_18 
ROOT
HETATM    1  O   UNL     1      39.853   8.877  -6.360  1.00  0.00    -0.776 OA
HETATM    2  H   UNL     1      39.198   9.538  -6.093  1.00  0.00     0.167 HD
ENDROOT
BRANCH   1   3
HETATM    3  C   UNL     1      39.563   7.931  -7.279  1.00  0.00     0.139 C 
HETATM    4  O   UNL     1      39.576   6.751  -6.959  1.00  0.00    -0.650 OA
BRANCH   3   5
HETATM    5  C   UNL     1      39.228   8.357  -8.685  1.00  0.00     0.110 C 
BRANCH   5   6
HETATM    6  C   UNL     1      40.015   7.582  -9.753  1.00  0.00     0.010 C 
BRANCH   6   7
HETATM    7  C   UNL     1      39.077   7.023 -10.829  1.00  0.00     0.001 C 
BRANCH   7   8
HETATM    8  C   UNL     1      39.015   7.957 -12.044  1.00  0.00     0.000 C 
BRANCH   8   9
HETATM    9  C   UNL     1      39.435   7.224 -13.324  1.00  0.00     0.000 C 
BRANCH   9  10
HETATM   10  C   UNL     1      39.718   8.215 -14.458  1.00  0.00     0.000 C 
BRANCH  10  11
HETATM   11  C   UNL     1      38.415   8.681 -15.119  1.00  0.00     0.000 C 
BRANCH  11  12
HETATM   12  C   UNL     1      38.573   8.779 -16.641  1.00  0.00     0.000 C 
BRANCH  12  13
HETATM   13  C   UNL     1      39.755   9.681 -17.015  1.00  0.00     0.000 C 
BRANCH  13  14
HETATM   14  C   UNL     1      40.617   9.034 -18.107  1.00  0.00     0.000 C 
BRANCH  14  15
HETATM   15  C   UNL     1      40.088   7.642 -18.473  1.00  0.00     0.000 C 
BRANCH  15  16
HETATM   16  C   UNL     1      39.780   7.548 -19.971  1.00  0.00     0.000 C 
BRANCH  16  17
HETATM   17  C   UNL     1      38.267   7.489 -20.219  1.00  0.00    -0.000 C 
BRANCH  17  18
HETATM   18  C   UNL     1      37.715   8.874 -20.577  1.00  0.00    -0.005 C 
HETATM   19  C   UNL     1      37.877   9.163 -22.067  1.00  0.00     0.005 C 
ENDBRANCH  17  18
ENDBRANCH  16  17
ENDBRANCH  15  16
ENDBRANCH  14  15
ENDBRANCH  13  14
ENDBRANCH  12  13
ENDBRANCH  11  12
ENDBRANCH  10  11
ENDBRANCH   9  10
ENDBRANCH   8   9
ENDBRANCH   7   8
ENDBRANCH   6   7
ENDBRANCH   5   6
ENDBRANCH   3   5
ENDBRANCH   1   3
TORSDOF 15
ENDMDL
MODEL 12
REMARK VINA RESULT:      -4.4     25.918     27.623
REMARK  15 active torsions:
REMARK  status: ('A' for Active; 'I' for Inactive)
REMARK    1  A    between atoms: O_1  and  C_18 
REMARK    2  A    between atoms: C_3  and  C_4 
REMARK    3  A    between atoms: C_3  and  C_5 
REMARK    4  A    between atoms: C_4  and  C_6 
REMARK    5  A    between atoms: C_5  and  C_7 
REMARK    6  A    between atoms: C_6  and  C_8 
REMARK    7  A    between atoms: C_7  and  C_9 
REMARK    8  A    between atoms: C_8  and  C_10 
REMARK    9  A    between atoms: C_9  and  C_11 
REMARK   10  A    between atoms: C_10  and  C_12 
REMARK   11  A    between atoms: C_11  and  C_13 
REMARK   12  A    between atoms: C_12  and  C_14 
REMARK   13  A    between atoms: C_13  and  C_15 
REMARK   14  A    between atoms: C_14  and  C_16 
REMARK   15  A    between atoms: C_16  and  C_18 
ROOT
HETATM    1  O   UNL     1      31.742 -21.080 -10.063  1.00  0.00    -0.776 OA
HETATM    2  H   UNL     1      31.149 -21.821 -10.249  1.00  0.00     0.167 HD
ENDROOT
BRANCH   1   3
HETATM    3  C   UNL     1      31.459 -20.176  -9.102  1.00  0.00     0.139 C 
HETATM    4  O   UNL     1      31.290 -20.547  -7.949  1.00  0.00    -0.650 OA
BRANCH   3   5
HETATM    5  C   UNL     1      31.358 -18.719  -9.476  1.00  0.00     0.110 C 
BRANCH   5   6
HETATM    6  C   UNL     1      30.106 -18.396 -10.306  1.00  0.00     0.010 C 
BRANCH   6   7
HETATM    7  C   UNL     1      30.488 -17.903 -11.706  1.00  0.00     0.001 C 
BRANCH   7   8
HETATM    8  C   UNL     1      30.598 -19.073 -12.691  1.00  0.00     0.000 C 
BRANCH   8   9
HETATM    9  C   UNL     1      29.728 -18.832 -13.931  1.00  0.00     0.000 C 
BRANCH   9  10
HETATM   10  C   UNL     1      30.499 -19.161 -15.215  1.00  0.00     0.000 C 
BRANCH  10  11
HETATM   11  C   UNL     1      30.477 -17.976 -16.188  1.00  0.00     0.000 C 
BRANCH  11  12
HETATM   12  C   UNL     1      31.072 -16.720 -15.541  1.00  0.00     0.000 C 
BRANCH  12  13
HETATM   13  C   UNL     1      30.362 -15.456 -16.037  1.00  0.00     0.000 C 
BRANCH  13  14
HETATM   14  C   UNL     1      28.983 -15.308 -15.384  1.00  0.00     0.000 C 
BRANCH  14  15
HETATM   15  C   UNL     1      28.348 -13.958 -15.739  1.00  0.00     0.000 C 
BRANCH  15  16
HETATM   16  C   UNL     1      28.650 -12.908 -14.664  1.00  0.00     0.000 C 
BRANCH  16  17
HETATM   17  C   UNL     1      29.255 -11.643 -15.284  1.00  0.00    -0.000 C 
BRANCH  17  18
HETATM   18  C   UNL     1      30.756 -11.821 -15.540  1.00  0.00    -0.005 C 
HETATM   19  C   UNL     1      31.512 -12.063 -14.236  1.00  0.00     0.005 C 
ENDBRANCH  17  18
ENDBRANCH  16  17
ENDBRANCH  15  16
ENDBRANCH  14  15
ENDBRANCH  13  14
ENDBRANCH  12  13
ENDBRANCH  11  12
ENDBRANCH  10  11
ENDBRANCH   9  10
ENDBRANCH   8   9
ENDBRANCH   7   8
ENDBRANCH   6   7
ENDBRANCH   5   6
ENDBRANCH   3   5
ENDBRANCH   1   3
TORSDOF 15
ENDMDL
MODEL 13
REMARK VINA RESULT:      -4.4      5.654      9.911
REMARK  15 active torsions:
REMARK  status: ('A' for Active; 'I' for Inactive)
REMARK    1  A    between atoms: O_1  and  C_18 
REMARK    2  A    between atoms: C_3  and  C_4 
REMARK    3  A    between atoms: C_3  and  C_5 
REMARK    4  A    between atoms: C_4  and  C_6 
REMARK    5  A    between atoms: C_5  and  C_7 
REMARK    6  A    between atoms: C_6  and  C_8 
REMARK    7  A    between atoms: C_7  and  C_9 
REMARK    8  A    between atoms: C_8  and  C_10 
REMARK    9  A    between atoms: C_9  and  C_11 
REMARK   10  A    between atoms: C_10  and  C_12 
REMARK   11  A    between atoms: C_11  and  C_13 
REMARK   12  A    between atoms: C_12  and  C_14 
REMARK   13  A    between atoms: C_13  and  C_15 
REMARK   14  A    between atoms: C_14  and  C_16 
REMARK   15  A    between atoms: C_16  and  C_18 
ROOT
HETATM    1  O   UNL     1      38.872   6.309  -5.217  1.00  0.00    -0.776 OA
HETATM    2  H   UNL     1      38.088   5.838  -4.901  1.00  0.00     0.167 HD
ENDROOT
BRANCH   1   3
HETATM    3  C   UNL     1      39.311   7.431  -4.608  1.00  0.00     0.139 C 
HETATM    4  O   UNL     1      39.945   7.348  -3.566  1.00  0.00    -0.650 OA
BRANCH   3   5
HETATM    5  C   UNL     1      39.009   8.768  -5.234  1.00  0.00     0.110 C 
BRANCH   5   6
HETATM    6  C   UNL     1      38.109   8.663  -6.475  1.00  0.00     0.010 C 
BRANCH   6   7
HETATM    7  C   UNL     1      38.909   8.913  -7.757  1.00  0.00     0.001 C 
BRANCH   7   8
HETATM    8  C   UNL     1      39.211   7.596  -8.483  1.00  0.00     0.000 C 
BRANCH   8   9
HETATM    9  C   UNL     1      40.491   7.709  -9.319  1.00  0.00     0.000 C 
BRANCH   9  10
HETATM   10  C   UNL     1      40.801   9.172  -9.657  1.00  0.00     0.000 C 
BRANCH  10  11
HETATM   11  C   UNL     1      40.419   9.494 -11.107  1.00  0.00     0.000 C 
BRANCH  11  12
HETATM   12  C   UNL     1      38.930   9.227 -11.358  1.00  0.00     0.000 C 
BRANCH  12  13
HETATM   13  C   UNL     1      38.677   8.856 -12.823  1.00  0.00     0.000 C 
BRANCH  13  14
HETATM   14  C   UNL     1      39.422   7.569 -13.202  1.00  0.00     0.000 C 
BRANCH  14  15
HETATM   15  C   UNL     1      40.152   7.730 -14.541  1.00  0.00     0.000 C 
BRANCH  15  16
HETATM   16  C   UNL     1      39.361   7.076 -15.680  1.00  0.00     0.000 C 
BRANCH  16  17
HETATM   17  C   UNL     1      38.007   7.767 -15.877  1.00  0.00    -0.000 C 
BRANCH  17  18
HETATM   18  C   UNL     1      38.114   8.908 -16.895  1.00  0.00    -0.005 C 
HETATM   19  C   UNL     1      37.902  10.264 -16.227  1.00  0.00     0.005 C 
ENDBRANCH  17  18
ENDBRANCH  16  17
ENDBRANCH  15  16
ENDBRANCH  14  15
ENDBRANCH  13  14
ENDBRANCH  12  13
ENDBRANCH  11  12
ENDBRANCH  10  11
ENDBRANCH   9  10
ENDBRANCH   8   9
ENDBRANCH   7   8
ENDBRANCH   6   7
ENDBRANCH   5   6
ENDBRANCH   3   5
ENDBRANCH   1   3
TORSDOF 15
ENDMDL
MODEL 14
REMARK VINA RESULT:      -4.4      5.502      9.513
REMARK  15 active torsions:
REMARK  status: ('A' for Active; 'I' for Inactive)
REMARK    1  A    between atoms: O_1  and  C_18 
REMARK    2  A    between atoms: C_3  and  C_4 
REMARK    3  A    between atoms: C_3  and  C_5 
REMARK    4  A    between atoms: C_4  and  C_6 
REMARK    5  A    between atoms: C_5  and  C_7 
REMARK    6  A    between atoms: C_6  and  C_8 
REMARK    7  A    between atoms: C_7  and  C_9 
REMARK    8  A    between atoms: C_8  and  C_10 
REMARK    9  A    between atoms: C_9  and  C_11 
REMARK   10  A    between atoms: C_10  and  C_12 
REMARK   11  A    between atoms: C_11  and  C_13 
REMARK   12  A    between atoms: C_12  and  C_14 
REMARK   13  A    between atoms: C_13  and  C_15 
REMARK   14  A    between atoms: C_14  and  C_16 
REMARK   15  A    between atoms: C_16  and  C_18 
ROOT
HETATM    1  O   UNL     1      38.691   6.135  -5.279  1.00  0.00    -0.776 OA
HETATM    2  H   UNL     1      39.033   5.801  -4.438  1.00  0.00     0.167 HD
ENDROOT
BRANCH   1   3
HETATM    3  C   UNL     1      39.325   7.114  -5.958  1.00  0.00     0.139 C 
HETATM    4  O   UNL     1      39.924   7.987  -5.346  1.00  0.00    -0.650 OA
BRANCH   3   5
HETATM    5  C   UNL     1      39.279   7.107  -7.464  1.00  0.00     0.110 C 
BRANCH   5   6
HETATM    6  C   UNL     1      40.002   8.307  -8.095  1.00  0.00     0.010 C 
BRANCH   6   7
HETATM    7  C   UNL     1      39.020   9.198  -8.863  1.00  0.00     0.001 C 
BRANCH   7   8
HETATM    8  C   UNL     1      39.722   9.923 -10.018  1.00  0.00     0.000 C 
BRANCH   8   9
HETATM    9  C   UNL     1      40.392   8.923 -10.969  1.00  0.00     0.000 C 
BRANCH   9  10
HETATM   10  C   UNL     1      40.243   9.367 -12.428  1.00  0.00     0.000 C 
BRANCH  10  11
HETATM   11  C   UNL     1      39.293   8.436 -13.192  1.00  0.00     0.000 C 
BRANCH  11  12
HETATM   12  C   UNL     1      40.028   7.706 -14.322  1.00  0.00     0.000 C 
BRANCH  12  13
HETATM   13  C   UNL     1      39.054   6.878 -15.168  1.00  0.00     0.000 C 
BRANCH  13  14
HETATM   14  C   UNL     1      39.308   7.091 -16.665  1.00  0.00     0.000 C 
BRANCH  14  15
HETATM   15  C   UNL     1      39.767   8.526 -16.948  1.00  0.00     0.000 C 
BRANCH  15  16
HETATM   16  C   UNL     1      40.450   8.626 -18.317  1.00  0.00     0.000 C 
BRANCH  16  17
HETATM   17  C   UNL     1      41.490   9.752 -18.332  1.00  0.00    -0.000 C 
BRANCH  17  18
HETATM   18  C   UNL     1      41.572  10.444 -16.966  1.00  0.00    -0.005 C 
HETATM   19  C   UNL     1      42.305  11.779 -17.068  1.00  0.00     0.005 C 
ENDBRANCH  17  18
ENDBRANCH  16  17
ENDBRANCH  15  16
ENDBRANCH  14  15
ENDBRANCH  13  14
ENDBRANCH  12  13
ENDBRANCH  11  12
ENDBRANCH  10  11
ENDBRANCH   9  10
ENDBRANCH   8   9
ENDBRANCH   7   8
ENDBRANCH   6   7
ENDBRANCH   5   6
ENDBRANCH   3   5
ENDBRANCH   1   3
TORSDOF 15
ENDMDL
MODEL 15
REMARK VINA RESULT:      -4.4      4.516      8.691
REMARK  15 active torsions:
REMARK  status: ('A' for Active; 'I' for Inactive)
REMARK    1  A    between atoms: O_1  and  C_18 
REMARK    2  A    between atoms: C_3  and  C_4 
REMARK    3  A    between atoms: C_3  and  C_5 
REMARK    4  A    between atoms: C_4  and  C_6 
REMARK    5  A    between atoms: C_5  and  C_7 
REMARK    6  A    between atoms: C_6  and  C_8 
REMARK    7  A    between atoms: C_7  and  C_9 
REMARK    8  A    between atoms: C_8  and  C_10 
REMARK    9  A    between atoms: C_9  and  C_11 
REMARK   10  A    between atoms: C_10  and  C_12 
REMARK   11  A    between atoms: C_11  and  C_13 
REMARK   12  A    between atoms: C_12  and  C_14 
REMARK   13  A    between atoms: C_13  and  C_15 
REMARK   14  A    between atoms: C_14  and  C_16 
REMARK   15  A    between atoms: C_16  and  C_18 
ROOT
HETATM    1  O   UNL     1      40.922  11.481  -9.588  1.00  0.00    -0.776 OA
HETATM    2  H   UNL     1      39.973  11.306  -9.647  1.00  0.00     0.167 HD
ENDROOT
BRANCH   1   3
HETATM    3  C   UNL     1      41.784  10.548  -9.130  1.00  0.00     0.139 C 
HETATM    4  O   UNL     1      42.972  10.817  -9.028  1.00  0.00    -0.650 OA
BRANCH   3   5
HETATM    5  C   UNL     1      41.255   9.189  -8.753  1.00  0.00     0.110 C 
BRANCH   5   6
HETATM    6  C   UNL     1      40.158   9.245  -7.679  1.00  0.00     0.010 C 
BRANCH   6   7
HETATM    7  C   UNL     1      38.970   8.355  -8.060  1.00  0.00     0.001 C 
BRANCH   7   8
HETATM    8  C   UNL     1      39.367   7.337  -9.136  1.00  0.00     0.000 C 
BRANCH   8   9
HETATM    9  C   UNL     1      38.407   7.395 -10.330  1.00  0.00     0.000 C 
BRANCH   9  10
HETATM   10  C   UNL     1      38.181   8.842 -10.785  1.00  0.00     0.000 C 
BRANCH  10  11
HETATM   11  C   UNL     1      39.070   9.186 -11.987  1.00  0.00     0.000 C 
BRANCH  11  12
HETATM   12  C   UNL     1      38.483   8.621 -13.286  1.00  0.00     0.000 C 
BRANCH  12  13
HETATM   13  C   UNL     1      39.400   7.548 -13.883  1.00  0.00     0.000 C 
BRANCH  13  14
HETATM   14  C   UNL     1      38.724   6.844 -15.066  1.00  0.00     0.000 C 
BRANCH  14  15
HETATM   15  C   UNL     1      39.369   7.258 -16.394  1.00  0.00     0.000 C 
BRANCH  15  16
HETATM   16  C   UNL     1      38.562   8.369 -17.075  1.00  0.00     0.000 C 
BRANCH  16  17
HETATM   17  C   UNL     1      39.273   9.722 -16.949  1.00  0.00    -0.000 C 
BRANCH  17  18
HETATM   18  C   UNL     1      40.795   9.542 -16.920  1.00  0.00    -0.005 C 
HETATM   19  C   UNL     1      41.375   9.532 -18.332  1.00  0.00     0.005 C 
ENDBRANCH  17  18
ENDBRANCH  16  17
ENDBRANCH  15  16
ENDBRANCH  14  15
ENDBRANCH  13  14
ENDBRANCH  12  13
ENDBRANCH  11  12
ENDBRANCH  10  11
ENDBRANCH   9  10
ENDBRANCH   8   9
ENDBRANCH   7   8
ENDBRANCH   6   7
ENDBRANCH   5   6
ENDBRANCH   3   5
ENDBRANCH   1   3
TORSDOF 15
ENDMDL
MODEL 16
REMARK VINA RESULT:      -4.4     26.867     28.660
REMARK  15 active torsions:
REMARK  status: ('A' for Active; 'I' for Inactive)
REMARK    1  A    between atoms: O_1  and  C_18 
REMARK    2  A    between atoms: C_3  and  C_4 
REMARK    3  A    between atoms: C_3  and  C_5 
REMARK    4  A    between atoms: C_4  and  C_6 
REMARK    5  A    between atoms: C_5  and  C_7 
REMARK    6  A    between atoms: C_6  and  C_8 
REMARK    7  A    between atoms: C_7  and  C_9 
REMARK    8  A    between atoms: C_8  and  C_10 
REMARK    9  A    between atoms: C_9  and  C_11 
REMARK   10  A    between atoms: C_10  and  C_12 
REMARK   11  A    between atoms: C_11  and  C_13 
REMARK   12  A    between atoms: C_12  and  C_14 
REMARK   13  A    between atoms: C_13  and  C_15 
REMARK   14  A    between atoms: C_14  and  C_16 
REMARK   15  A    between atoms: C_16  and  C_18 
ROOT
HETATM    1  O   UNL     1      32.111 -20.789  -9.523  1.00  0.00    -0.776 OA
HETATM    2  H   UNL     1      32.860 -20.188  -9.408  1.00  0.00     0.167 HD
ENDROOT
BRANCH   1   3
HETATM    3  C   UNL     1      30.841 -20.332  -9.570  1.00  0.00     0.139 C 
HETATM    4  O   UNL     1      29.991 -20.827  -8.843  1.00  0.00    -0.650 OA
BRANCH   3   5
HETATM    5  C   UNL     1      30.502 -19.215 -10.522  1.00  0.00     0.110 C 
BRANCH   5   6
HETATM    6  C   UNL     1      30.722 -19.591 -11.996  1.00  0.00     0.010 C 
BRANCH   6   7
HETATM    7  C   UNL     1      30.235 -18.475 -12.926  1.00  0.00     0.001 C 
BRANCH   7   8
HETATM    8  C   UNL     1      30.015 -19.002 -14.349  1.00  0.00     0.000 C 
BRANCH   8   9
HETATM    9  C   UNL     1      31.258 -19.739 -14.863  1.00  0.00     0.000 C 
BRANCH   9  10
HETATM   10  C   UNL     1      31.015 -20.319 -16.261  1.00  0.00     0.000 C 
BRANCH  10  11
HETATM   11  C   UNL     1      30.100 -19.405 -17.084  1.00  0.00     0.000 C 
BRANCH  11  12
HETATM   12  C   UNL     1      30.898 -18.633 -18.142  1.00  0.00     0.000 C 
BRANCH  12  13
HETATM   13  C   UNL     1      30.487 -17.157 -18.173  1.00  0.00     0.000 C 
BRANCH  13  14
HETATM   14  C   UNL     1      31.618 -16.260 -17.653  1.00  0.00     0.000 C 
BRANCH  14  15
HETATM   15  C   UNL     1      31.570 -16.143 -16.125  1.00  0.00     0.000 C 
BRANCH  15  16
HETATM   16  C   UNL     1      30.217 -15.595 -15.657  1.00  0.00     0.000 C 
BRANCH  16  17
HETATM   17  C   UNL     1      30.287 -14.080 -15.430  1.00  0.00    -0.000 C 
BRANCH  17  18
HETATM   18  C   UNL     1      29.450 -13.328 -16.471  1.00  0.00    -0.005 C 
HETATM   19  C   UNL     1      28.393 -14.239 -17.090  1.00  0.00     0.005 C 
ENDBRANCH  17  18
ENDBRANCH  16  17
ENDBRANCH  15  16
ENDBRANCH  14  15
ENDBRANCH  13  14
ENDBRANCH  12  13
ENDBRANCH  11  12
ENDBRANCH  10  11
ENDBRANCH   9  10
ENDBRANCH   8   9
ENDBRANCH   7   8
ENDBRANCH   6   7
ENDBRANCH   5   6
ENDBRANCH   3   5
ENDBRANCH   1   3
TORSDOF 15
ENDMDL
MODEL 17
REMARK VINA RESULT:      -4.4      2.166      3.075
REMARK  15 active torsions:
REMARK  status: ('A' for Active; 'I' for Inactive)
REMARK    1  A    between atoms: O_1  and  C_18 
REMARK    2  A    between atoms: C_3  and  C_4 
REMARK    3  A    between atoms: C_3  and  C_5 
REMARK    4  A    between atoms: C_4  and  C_6 
REMARK    5  A    between atoms: C_5  and  C_7 
REMARK    6  A    between atoms: C_6  and  C_8 
REMARK    7  A    between atoms: C_7  and  C_9 
REMARK    8  A    between atoms: C_8  and  C_10 
REMARK    9  A    between atoms: C_9  and  C_11 
REMARK   10  A    between atoms: C_10  and  C_12 
REMARK   11  A    between atoms: C_11  and  C_13 
REMARK   12  A    between atoms: C_12  and  C_14 
REMARK   13  A    between atoms: C_13  and  C_15 
REMARK   14  A    between atoms: C_14  and  C_16 
REMARK   15  A    between atoms: C_16  and  C_18 
ROOT
HETATM    1  O   UNL     1      39.633   8.800 -19.741  1.00  0.00    -0.776 OA
HETATM    2  H   UNL     1      39.548   8.777 -20.704  1.00  0.00     0.167 HD
ENDROOT
BRANCH   1   3
HETATM    3  C   UNL     1      39.271   7.747 -18.977  1.00  0.00     0.139 C 
HETATM    4  O   UNL     1      38.847   6.730 -19.506  1.00  0.00    -0.650 OA
BRANCH   3   5
HETATM    5  C   UNL     1      39.401   7.853 -17.479  1.00  0.00     0.110 C 
BRANCH   5   6
HETATM    6  C   UNL     1      38.688   9.083 -16.898  1.00  0.00     0.010 C 
BRANCH   6   7
HETATM    7  C   UNL     1      37.591   8.667 -15.911  1.00  0.00     0.001 C 
BRANCH   7   8
HETATM    8  C   UNL     1      38.097   8.737 -14.465  1.00  0.00     0.000 C 
BRANCH   8   9
HETATM    9  C   UNL     1      38.569   7.361 -13.979  1.00  0.00     0.000 C 
BRANCH   9  10
HETATM   10  C   UNL     1      39.774   7.492 -13.041  1.00  0.00     0.000 C 
BRANCH  10  11
HETATM   11  C   UNL     1      39.375   7.199 -11.590  1.00  0.00     0.000 C 
BRANCH  11  12
HETATM   12  C   UNL     1      39.497   8.456 -10.720  1.00  0.00     0.000 C 
BRANCH  12  13
HETATM   13  C   UNL     1      40.684   8.347  -9.757  1.00  0.00     0.000 C 
BRANCH  13  14
HETATM   14  C   UNL     1      40.207   8.080  -8.324  1.00  0.00     0.000 C 
BRANCH  14  15
HETATM   15  C   UNL     1      38.726   8.440  -8.160  1.00  0.00     0.000 C 
BRANCH  15  16
HETATM   16  C   UNL     1      38.230   8.101  -6.750  1.00  0.00     0.000 C 
BRANCH  16  17
HETATM   17  C   UNL     1      39.168   7.102  -6.062  1.00  0.00    -0.000 C 
BRANCH  17  18
HETATM   18  C   UNL     1      39.217   7.345  -4.550  1.00  0.00    -0.005 C 
HETATM   19  C   UNL     1      40.544   7.974  -4.136  1.00  0.00     0.005 C 
ENDBRANCH  17  18
ENDBRANCH  16  17
ENDBRANCH  15  16
ENDBRANCH  14  15
ENDBRANCH  13  14
ENDBRANCH  12  13
ENDBRANCH  11  12
ENDBRANCH  10  11
ENDBRANCH   9  10
ENDBRANCH   8   9
ENDBRANCH   7   8
ENDBRANCH   6   7
ENDBRANCH   5   6
ENDBRANCH   3   5
ENDBRANCH   1   3
TORSDOF 15
ENDMDL
MODEL 18
REMARK VINA RESULT:      -4.4      6.903     10.728
REMARK  15 active torsions:
REMARK  status: ('A' for Active; 'I' for Inactive)
REMARK    1  A    between atoms: O_1  and  C_18 
REMARK    2  A    between atoms: C_3  and  C_4 
REMARK    3  A    between atoms: C_3  and  C_5 
REMARK    4  A    between atoms: C_4  and  C_6 
REMARK    5  A    between atoms: C_5  and  C_7 
REMARK    6  A    between atoms: C_6  and  C_8 
REMARK    7  A    between atoms: C_7  and  C_9 
REMARK    8  A    between atoms: C_8  and  C_10 
REMARK    9  A    between atoms: C_9  and  C_11 
REMARK   10  A    between atoms: C_10  and  C_12 
REMARK   11  A    between atoms: C_11  and  C_13 
REMARK   12  A    between atoms: C_12  and  C_14 
REMARK   13  A    between atoms: C_13  and  C_15 
REMARK   14  A    between atoms: C_14  and  C_16 
REMARK   15  A    between atoms: C_16  and  C_18 
ROOT
HETATM    1  O   UNL     1      36.475  10.924  -6.105  1.00  0.00    -0.776 OA
HETATM    2  H   UNL     1      36.229  11.826  -6.355  1.00  0.00     0.167 HD
ENDROOT
BRANCH   1   3
HETATM    3  C   UNL     1      37.379  10.685  -5.132  1.00  0.00     0.139 C 
HETATM    4  O   UNL     1      38.013  11.613  -4.650  1.00  0.00    -0.650 OA
BRANCH   3   5
HETATM    5  C   UNL     1      37.584   9.269  -4.658  1.00  0.00     0.110 C 
BRANCH   5   6
HETATM    6  C   UNL     1      37.934   8.298  -5.796  1.00  0.00     0.010 C 
BRANCH   6   7
HETATM    7  C   UNL     1      39.230   7.537  -5.490  1.00  0.00     0.001 C 
BRANCH   7   8
HETATM    8  C   UNL     1      39.823   7.980  -4.147  1.00  0.00     0.000 C 
BRANCH   8   9
HETATM    9  C   UNL     1      41.164   8.698  -4.347  1.00  0.00     0.000 C 
BRANCH   9  10
HETATM   10  C   UNL     1      41.102  10.135  -3.818  1.00  0.00     0.000 C 
BRANCH  10  11
HETATM   11  C   UNL     1      41.525  11.138  -4.899  1.00  0.00     0.000 C 
BRANCH  11  12
HETATM   12  C   UNL     1      41.517  10.488  -6.287  1.00  0.00     0.000 C 
BRANCH  12  13
HETATM   13  C   UNL     1      40.357  11.018  -7.137  1.00  0.00     0.000 C 
BRANCH  13  14
HETATM   14  C   UNL     1      40.003  10.034  -8.259  1.00  0.00     0.000 C 
BRANCH  14  15
HETATM   15  C   UNL     1      41.190   9.121  -8.586  1.00  0.00     0.000 C 
BRANCH  15  16
HETATM   16  C   UNL     1      40.759   7.960  -9.489  1.00  0.00     0.000 C 
BRANCH  16  17
HETATM   17  C   UNL     1      39.387   7.418  -9.071  1.00  0.00    -0.000 C 
BRANCH  17  18
HETATM   18  C   UNL     1      38.538   7.063 -10.297  1.00  0.00    -0.005 C 
HETATM   19  C   UNL     1      39.373   7.101 -11.574  1.00  0.00     0.005 C 
ENDBRANCH  17  18
ENDBRANCH  16  17
ENDBRANCH  15  16
ENDBRANCH  14  15
ENDBRANCH  13  14
ENDBRANCH  12  13
ENDBRANCH  11  12
ENDBRANCH  10  11
ENDBRANCH   9  10
ENDBRANCH   8   9
ENDBRANCH   7   8
ENDBRANCH   6   7
ENDBRANCH   5   6
ENDBRANCH   3   5
ENDBRANCH   1   3
TORSDOF 15
ENDMDL
MODEL 19
REMARK VINA RESULT:      -4.3     25.662     27.621
REMARK  15 active torsions:
REMARK  status: ('A' for Active; 'I' for Inactive)
REMARK    1  A    between atoms: O_1  and  C_18 
REMARK    2  A    between atoms: C_3  and  C_4 
REMARK    3  A    between atoms: C_3  and  C_5 
REMARK    4  A    between atoms: C_4  and  C_6 
REMARK    5  A    between atoms: C_5  and  C_7 
REMARK    6  A    between atoms: C_6  and  C_8 
REMARK    7  A    between atoms: C_7  and  C_9 
REMARK    8  A    between atoms: C_8  and  C_10 
REMARK    9  A    between atoms: C_9  and  C_11 
REMARK   10  A    between atoms: C_10  and  C_12 
REMARK   11  A    between atoms: C_11  and  C_13 
REMARK   12  A    between atoms: C_12  and  C_14 
REMARK   13  A    between atoms: C_13  and  C_15 
REMARK   14  A    between atoms: C_14  and  C_16 
REMARK   15  A    between atoms: C_16  and  C_18 
ROOT
HETATM    1  O   UNL     1      32.496 -20.382 -14.558  1.00  0.00    -0.776 OA
HETATM    2  H   UNL     1      33.201 -20.967 -14.869  1.00  0.00     0.167 HD
ENDROOT
BRANCH   1   3
HETATM    3  C   UNL     1      31.203 -20.608 -14.873  1.00  0.00     0.139 C 
HETATM    4  O   UNL     1      30.912 -21.017 -15.988  1.00  0.00    -0.650 OA
BRANCH   3   5
HETATM    5  C   UNL     1      30.142 -20.348 -13.836  1.00  0.00     0.110 C 
BRANCH   5   6
HETATM    6  C   UNL     1      30.718 -19.910 -12.480  1.00  0.00     0.010 C 
BRANCH   6   7
HETATM    7  C   UNL     1      30.427 -18.429 -12.212  1.00  0.00     0.001 C 
BRANCH   7   8
HETATM    8  C   UNL     1      29.916 -17.731 -13.479  1.00  0.00     0.000 C 
BRANCH   8   9
HETATM    9  C   UNL     1      30.916 -16.675 -13.966  1.00  0.00     0.000 C 
BRANCH   9  10
HETATM   10  C   UNL     1      31.283 -16.901 -15.437  1.00  0.00     0.000 C 
BRANCH  10  11
HETATM   11  C   UNL     1      30.081 -17.430 -16.228  1.00  0.00     0.000 C 
BRANCH  11  12
HETATM   12  C   UNL     1      30.388 -17.482 -17.729  1.00  0.00     0.000 C 
BRANCH  12  13
HETATM   13  C   UNL     1      31.685 -16.732 -18.052  1.00  0.00     0.000 C 
BRANCH  13  14
HETATM   14  C   UNL     1      31.454 -15.674 -19.138  1.00  0.00     0.000 C 
BRANCH  14  15
HETATM   15  C   UNL     1      30.228 -14.812 -18.814  1.00  0.00     0.000 C 
BRANCH  15  16
HETATM   16  C   UNL     1      30.624 -13.576 -17.999  1.00  0.00     0.000 C 
BRANCH  16  17
HETATM   17  C   UNL     1      29.705 -12.390 -18.315  1.00  0.00    -0.000 C 
BRANCH  17  18
HETATM   18  C   UNL     1      29.972 -11.847 -19.724  1.00  0.00    -0.005 C 
HETATM   19  C   UNL     1      28.704 -11.866 -20.572  1.00  0.00     0.005 C 
ENDBRANCH  17  18
ENDBRANCH  16  17
ENDBRANCH  15  16
ENDBRANCH  14  15
ENDBRANCH  13  14
ENDBRANCH  12  13
ENDBRANCH  11  12
ENDBRANCH  10  11
ENDBRANCH   9  10
ENDBRANCH   8   9
ENDBRANCH   7   8
ENDBRANCH   6   7
ENDBRANCH   5   6
ENDBRANCH   3   5
ENDBRANCH   1   3
TORSDOF 15
ENDMDL
MODEL 20
REMARK VINA RESULT:      -4.3     25.273     26.642
REMARK  15 active torsions:
REMARK  status: ('A' for Active; 'I' for Inactive)
REMARK    1  A    between atoms: O_1  and  C_18 
REMARK    2  A    between atoms: C_3  and  C_4 
REMARK    3  A    between atoms: C_3  and  C_5 
REMARK    4  A    between atoms: C_4  and  C_6 
REMARK    5  A    between atoms: C_5  and  C_7 
REMARK    6  A    between atoms: C_6  and  C_8 
REMARK    7  A    between atoms: C_7  and  C_9 
REMARK    8  A    between atoms: C_8  and  C_10 
REMARK    9  A    between atoms: C_9  and  C_11 
REMARK   10  A    between atoms: C_10  and  C_12 
REMARK   11  A    between atoms: C_11  and  C_13 
REMARK   12  A    between atoms: C_12  and  C_14 
REMARK   13  A    between atoms: C_13  and  C_15 
REMARK   14  A    between atoms: C_14  and  C_16 
REMARK   15  A    between atoms: C_16  and  C_18 
ROOT
HETATM    1  O   UNL     1      29.884 -21.084 -18.770  1.00  0.00    -0.776 OA
HETATM    2  H   UNL     1      30.083 -21.005 -19.713  1.00  0.00     0.167 HD
ENDROOT
BRANCH   1   3
HETATM    3  C   UNL     1      30.459 -20.269 -17.859  1.00  0.00     0.139 C 
HETATM    4  O   UNL     1      30.856 -20.730 -16.798  1.00  0.00    -0.650 OA
BRANCH   3   5
HETATM    5  C   UNL     1      30.598 -18.803 -18.175  1.00  0.00     0.110 C 
BRANCH   5   6
HETATM    6  C   UNL     1      30.164 -17.892 -17.016  1.00  0.00     0.010 C 
BRANCH   6   7
HETATM    7  C   UNL     1      31.154 -16.738 -16.824  1.00  0.00     0.001 C 
BRANCH   7   8
HETATM    8  C   UNL     1      31.141 -16.239 -15.373  1.00  0.00     0.000 C 
BRANCH   8   9
HETATM    9  C   UNL     1      30.376 -17.208 -14.464  1.00  0.00     0.000 C 
BRANCH   9  10
HETATM   10  C   UNL     1      31.075 -17.359 -13.109  1.00  0.00     0.000 C 
BRANCH  10  11
HETATM   11  C   UNL     1      30.104 -17.084 -11.954  1.00  0.00     0.000 C 
BRANCH  11  12
HETATM   12  C   UNL     1      29.677 -15.611 -11.932  1.00  0.00     0.000 C 
BRANCH  12  13
HETATM   13  C   UNL     1      30.887 -14.690 -11.743  1.00  0.00     0.000 C 
BRANCH  13  14
HETATM   14  C   UNL     1      30.860 -13.533 -12.750  1.00  0.00     0.000 C 
BRANCH  14  15
HETATM   15  C   UNL     1      29.501 -13.447 -13.453  1.00  0.00     0.000 C 
BRANCH  15  16
HETATM   16  C   UNL     1      29.400 -12.175 -14.302  1.00  0.00     0.000 C 
BRANCH  16  17
HETATM   17  C   UNL     1      28.530 -12.408 -15.543  1.00  0.00    -0.000 C 
BRANCH  17  18
HETATM   18  C   UNL     1      28.189 -13.894 -15.704  1.00  0.00    -0.005 C 
HETATM   19  C   UNL     1      28.305 -14.331 -17.162  1.00  0.00     0.005 C 
ENDBRANCH  17  18
ENDBRANCH  16  17
ENDBRANCH  15  16
ENDBRANCH  14  15
ENDBRANCH  13  14
ENDBRANCH  12  13
ENDBRANCH  11  12
ENDBRANCH  10  11
ENDBRANCH   9  10
ENDBRANCH   8   9
ENDBRANCH   7   8
ENDBRANCH   6   7
ENDBRANCH   5   6
ENDBRANCH   3   5
ENDBRANCH   1   3
TORSDOF 15
ENDMDL
