MODEL 1
REMARK VINA RESULT:      -6.0      0.000      0.000
REMARK  15 active torsions:
REMARK  status: ('A' for Active; 'I' for Inactive)
REMARK    1  A    between atoms: O_1  and  C_22 
REMARK    2  A    between atoms: C_3  and  C_4 
REMARK    3  A    between atoms: C_3  and  C_5 
REMARK    4  A    between atoms: C_4  and  C_6 
REMARK    5  A    between atoms: C_5  and  C_7 
REMARK    6  A    between atoms: C_9  and  C_10 
REMARK    7  A    between atoms: C_9  and  C_13 
REMARK    8  A    between atoms: C_10  and  C_14 
REMARK    9  A    between atoms: C_11  and  C_12 
REMARK   10  A    between atoms: C_12  and  C_16 
REMARK   11  A    between atoms: C_13  and  C_22 
REMARK   12  A    between atoms: C_15  and  C_17 
REMARK   13  A    between atoms: C_15  and  C_20 
REMARK   14  A    between atoms: C_18  and  C_19 
REMARK   15  A    between atoms: C_18  and  C_21 
ROOT
HETATM    1  O   UNL     1      -2.420  -7.756 -16.512  1.00  0.00    -0.776 OA
HETATM    2  H   UNL     1      -3.019  -7.330 -17.140  1.00  0.00     0.167 HD
ENDROOT
BRANCH   1   3
HETATM    3  C   UNL     1      -2.055  -7.147 -15.364  1.00  0.00     0.139 C 
HETATM    4  O   UNL     1      -1.755  -5.962 -15.367  1.00  0.00    -0.650 OA
BRANCH   3   5
HETATM    5  C   UNL     1      -2.007  -7.934 -14.083  1.00  0.00     0.110 C 
BRANCH   5   6
HETATM    6  C   UNL     1      -3.407  -8.301 -13.570  1.00  0.00     0.014 C 
BRANCH   6   7
HETATM    7  C   UNL     1      -3.564  -8.070 -12.062  1.00  0.00     0.027 C 
BRANCH   7   8
HETATM    8  C   UNL     1      -2.342  -7.368 -11.525  1.00  0.00    -0.030 C 
HETATM    9  C   UNL     1      -2.072  -7.165 -10.222  1.00  0.00    -0.027 C 
BRANCH   9  10
HETATM   10  C   UNL     1      -2.930  -7.624  -9.070  1.00  0.00     0.053 C 
BRANCH  10  11
HETATM   11  C   UNL     1      -2.179  -8.585  -8.175  1.00  0.00    -0.027 C 
HETATM   12  C   UNL     1      -1.977  -8.481  -6.846  1.00  0.00    -0.027 C 
BRANCH  12  13
HETATM   13  C   UNL     1      -2.475  -7.387  -5.935  1.00  0.00     0.053 C 
BRANCH  13  14
HETATM   14  C   UNL     1      -1.941  -7.595  -4.538  1.00  0.00    -0.027 C 
HETATM   15  C   UNL     1      -2.686  -7.943  -3.469  1.00  0.00    -0.027 C 
BRANCH  15  16
HETATM   16  C   UNL     1      -4.176  -8.163  -3.502  1.00  0.00     0.053 C 
BRANCH  16  17
HETATM   17  C   UNL     1      -4.575  -9.372  -2.693  1.00  0.00    -0.027 C 
HETATM   18  C   UNL     1      -4.776  -9.351  -1.364  1.00  0.00    -0.030 C 
BRANCH  18  19
HETATM   19  C   UNL     1      -4.625  -8.132  -0.490  1.00  0.00     0.027 C 
BRANCH  19  20
HETATM   20  C   UNL     1      -3.207  -8.087   0.090  1.00  0.00     0.004 C 
BRANCH  20  21
HETATM   21  C   UNL     1      -2.650  -9.499   0.301  1.00  0.00    -0.000 C 
BRANCH  21  22
HETATM   22  C   UNL     1      -1.285  -9.655  -0.379  1.00  0.00    -0.005 C 
HETATM   23  C   UNL     1      -1.326 -10.734  -1.457  1.00  0.00     0.005 C 
ENDBRANCH  21  22
ENDBRANCH  20  21
ENDBRANCH  19  20
ENDBRANCH  18  19
ENDBRANCH  16  17
ENDBRANCH  15  16
ENDBRANCH  13  14
ENDBRANCH  12  13
ENDBRANCH  10  11
ENDBRANCH   9  10
ENDBRANCH   7   8
ENDBRANCH   6   7
ENDBRANCH   5   6
ENDBRANCH   3   5
ENDBRANCH   1   3
TORSDOF 15
ENDMDL
MODEL 2
REMARK VINA RESULT:      -5.9      1.594      2.901
REMARK  15 active torsions:
REMARK  status: ('A' for Active; 'I' for Inactive)
REMARK    1  A    between atoms: O_1  and  C_22 
REMARK    2  A    between atoms: C_3  and  C_4 
REMARK    3  A    between atoms: C_3  and  C_5 
REMARK    4  A    between atoms: C_4  and  C_6 
REMARK    5  A    between atoms: C_5  and  C_7 
REMARK    6  A    between atoms: C_9  and  C_10 
REMARK    7  A    between atoms: C_9  and  C_13 
REMARK    8  A    between atoms: C_10  and  C_14 
REMARK    9  A    between atoms: C_11  and  C_12 
REMARK   10  A    between atoms: C_12  and  C_16 
REMARK   11  A    between atoms: C_13  and  C_22 
REMARK   12  A    between atoms: C_15  and  C_17 
REMARK   13  A    between atoms: C_15  and  C_20 
REMARK   14  A    between atoms: C_18  and  C_19 
REMARK   15  A    between atoms: C_18  and  C_21 
ROOT
HETATM    1  O   UNL     1      -1.570  -5.958 -15.138  1.00  0.00    -0.776 OA
HETATM    2  H   UNL     1      -1.650  -5.617 -16.040  1.00  0.00     0.167 HD
ENDROOT
BRANCH   1   3
HETATM    3  C   UNL     1      -2.280  -7.029 -14.726  1.00  0.00     0.139 C 
HETATM    4  O   UNL     1      -3.350  -7.295 -15.254  1.00  0.00    -0.650 OA
BRANCH   3   5
HETATM    5  C   UNL     1      -1.757  -7.887 -13.607  1.00  0.00     0.110 C 
BRANCH   5   6
HETATM    6  C   UNL     1      -2.830  -8.188 -12.551  1.00  0.00     0.014 C 
BRANCH   6   7
HETATM    7  C   UNL     1      -2.446  -7.679 -11.155  1.00  0.00     0.027 C 
BRANCH   7   8
HETATM    8  C   UNL     1      -3.694  -7.399 -10.356  1.00  0.00    -0.030 C 
HETATM    9  C   UNL     1      -3.896  -7.770  -9.078  1.00  0.00    -0.027 C 
BRANCH   9  10
HETATM   10  C   UNL     1      -2.906  -8.509  -8.214  1.00  0.00     0.053 C 
BRANCH  10  11
HETATM   11  C   UNL     1      -2.008  -7.548  -7.466  1.00  0.00    -0.027 C 
HETATM   12  C   UNL     1      -2.105  -7.170  -6.175  1.00  0.00    -0.027 C 
BRANCH  12  13
HETATM   13  C   UNL     1      -3.126  -7.636  -5.168  1.00  0.00     0.053 C 
BRANCH  13  14
HETATM   14  C   UNL     1      -2.441  -8.029  -3.881  1.00  0.00    -0.027 C 
HETATM   15  C   UNL     1      -3.062  -8.540  -2.798  1.00  0.00    -0.027 C 
BRANCH  15  16
HETATM   16  C   UNL     1      -4.546  -8.783  -2.701  1.00  0.00     0.053 C 
BRANCH  16  17
HETATM   17  C   UNL     1      -4.849 -10.222  -2.367  1.00  0.00    -0.027 C 
HETATM   18  C   UNL     1      -5.337 -10.630  -1.182  1.00  0.00    -0.030 C 
BRANCH  18  19
HETATM   19  C   UNL     1      -5.639  -9.722  -0.017  1.00  0.00     0.027 C 
BRANCH  19  20
HETATM   20  C   UNL     1      -7.155  -9.621   0.177  1.00  0.00     0.004 C 
BRANCH  20  21
HETATM   21  C   UNL     1      -7.724  -8.386  -0.530  1.00  0.00    -0.000 C 
BRANCH  21  22
HETATM   22  C   UNL     1      -6.830  -7.162  -0.296  1.00  0.00    -0.005 C 
HETATM   23  C   UNL     1      -7.591  -5.866  -0.555  1.00  0.00     0.005 C 
ENDBRANCH  21  22
ENDBRANCH  20  21
ENDBRANCH  19  20
ENDBRANCH  18  19
ENDBRANCH  16  17
ENDBRANCH  15  16
ENDBRANCH  13  14
ENDBRANCH  12  13
ENDBRANCH  10  11
ENDBRANCH   9  10
ENDBRANCH   7   8
ENDBRANCH   6   7
ENDBRANCH   5   6
ENDBRANCH   3   5
ENDBRANCH   1   3
TORSDOF 15
ENDMDL
MODEL 3
REMARK VINA RESULT:      -5.4      1.751      2.508
REMARK  15 active torsions:
REMARK  status: ('A' for Active; 'I' for Inactive)
REMARK    1  A    between atoms: O_1  and  C_22 
REMARK    2  A    between atoms: C_3  and  C_4 
REMARK    3  A    between atoms: C_3  and  C_5 
REMARK    4  A    between atoms: C_4  and  C_6 
REMARK    5  A    between atoms: C_5  and  C_7 
REMARK    6  A    between atoms: C_9  and  C_10 
REMARK    7  A    between atoms: C_9  and  C_13 
REMARK    8  A    between atoms: C_10  and  C_14 
REMARK    9  A    between atoms: C_11  and  C_12 
REMARK   10  A    between atoms: C_12  and  C_16 
REMARK   11  A    between atoms: C_13  and  C_22 
REMARK   12  A    between atoms: C_15  and  C_17 
REMARK   13  A    between atoms: C_15  and  C_20 
REMARK   14  A    between atoms: C_18  and  C_19 
REMARK   15  A    between atoms: C_18  and  C_21 
ROOT
HETATM    1  O   UNL     1      -1.412  -6.304 -14.766  1.00  0.00    -0.776 OA
HETATM    2  H   UNL     1      -0.463  -6.153 -14.878  1.00  0.00     0.167 HD
ENDROOT
BRANCH   1   3
HETATM    3  C   UNL     1      -1.937  -7.546 -14.818  1.00  0.00     0.139 C 
HETATM    4  O   UNL     1      -1.235  -8.495 -15.135  1.00  0.00    -0.650 OA
BRANCH   3   5
HETATM    5  C   UNL     1      -3.391  -7.757 -14.497  1.00  0.00     0.110 C 
BRANCH   5   6
HETATM    6  C   UNL     1      -3.642  -7.899 -12.989  1.00  0.00     0.014 C 
BRANCH   6   7
HETATM    7  C   UNL     1      -2.360  -8.200 -12.202  1.00  0.00     0.027 C 
BRANCH   7   8
HETATM    8  C   UNL     1      -1.989  -7.007 -11.359  1.00  0.00    -0.030 C 
HETATM    9  C   UNL     1      -2.359  -6.815 -10.079  1.00  0.00    -0.027 C 
BRANCH   9  10
HETATM   10  C   UNL     1      -3.187  -7.770  -9.256  1.00  0.00     0.053 C 
BRANCH  10  11
HETATM   11  C   UNL     1      -2.323  -8.562  -8.300  1.00  0.00    -0.027 C 
HETATM   12  C   UNL     1      -2.195  -8.384  -6.969  1.00  0.00    -0.027 C 
BRANCH  12  13
HETATM   13  C   UNL     1      -2.904  -7.361  -6.119  1.00  0.00     0.053 C 
BRANCH  13  14
HETATM   14  C   UNL     1      -2.002  -6.909  -4.995  1.00  0.00    -0.027 C 
HETATM   15  C   UNL     1      -1.974  -7.450  -3.760  1.00  0.00    -0.027 C 
BRANCH  15  16
HETATM   16  C   UNL     1      -2.855  -8.584  -3.305  1.00  0.00     0.053 C 
BRANCH  16  17
HETATM   17  C   UNL     1      -2.959  -8.634  -1.801  1.00  0.00    -0.027 C 
HETATM   18  C   UNL     1      -3.305  -9.734  -1.109  1.00  0.00    -0.030 C 
BRANCH  18  19
HETATM   19  C   UNL     1      -3.649 -11.066  -1.727  1.00  0.00     0.027 C 
BRANCH  19  20
HETATM   20  C   UNL     1      -4.213 -12.001  -0.653  1.00  0.00     0.004 C 
BRANCH  20  21
HETATM   21  C   UNL     1      -5.503 -11.436  -0.046  1.00  0.00    -0.000 C 
BRANCH  21  22
HETATM   22  C   UNL     1      -6.736 -12.104  -0.667  1.00  0.00    -0.005 C 
HETATM   23  C   UNL     1      -6.446 -13.553  -1.046  1.00  0.00     0.005 C 
ENDBRANCH  21  22
ENDBRANCH  20  21
ENDBRANCH  19  20
ENDBRANCH  18  19
ENDBRANCH  16  17
ENDBRANCH  15  16
ENDBRANCH  13  14
ENDBRANCH  12  13
ENDBRANCH  10  11
ENDBRANCH   9  10
ENDBRANCH   7   8
ENDBRANCH   6   7
ENDBRANCH   5   6
ENDBRANCH   3   5
ENDBRANCH   1   3
TORSDOF 15
ENDMDL
MODEL 4
REMARK VINA RESULT:      -5.2      3.475      6.991
REMARK  15 active torsions:
REMARK  status: ('A' for Active; 'I' for Inactive)
REMARK    1  A    between atoms: O_1  and  C_22 
REMARK    2  A    between atoms: C_3  and  C_4 
REMARK    3  A    between atoms: C_3  and  C_5 
REMARK    4  A    between atoms: C_4  and  C_6 
REMARK    5  A    between atoms: C_5  and  C_7 
REMARK    6  A    between atoms: C_9  and  C_10 
REMARK    7  A    between atoms: C_9  and  C_13 
REMARK    8  A    between atoms: C_10  and  C_14 
REMARK    9  A    between atoms: C_11  and  C_12 
REMARK   10  A    between atoms: C_12  and  C_16 
REMARK   11  A    between atoms: C_13  and  C_22 
REMARK   12  A    between atoms: C_15  and  C_17 
REMARK   13  A    between atoms: C_15  and  C_20 
REMARK   14  A    between atoms: C_18  and  C_19 
REMARK   15  A    between atoms: C_18  and  C_21 
ROOT
HETATM    1  O   UNL     1      -4.535  -8.674 -23.171  1.00  0.00    -0.776 OA
HETATM    2  H   UNL     1      -5.367  -8.183 -23.109  1.00  0.00     0.167 HD
ENDROOT
BRANCH   1   3
HETATM    3  C   UNL     1      -3.388  -8.180 -22.659  1.00  0.00     0.139 C 
HETATM    4  O   UNL     1      -2.385  -8.112 -23.355  1.00  0.00    -0.650 OA
BRANCH   3   5
HETATM    5  C   UNL     1      -3.344  -7.725 -21.226  1.00  0.00     0.110 C 
BRANCH   5   6
HETATM    6  C   UNL     1      -1.934  -7.301 -20.791  1.00  0.00     0.014 C 
BRANCH   6   7
HETATM    7  C   UNL     1      -1.715  -7.438 -19.279  1.00  0.00     0.027 C 
BRANCH   7   8
HETATM    8  C   UNL     1      -2.892  -8.147 -18.657  1.00  0.00    -0.030 C 
HETATM    9  C   UNL     1      -3.190  -8.152 -17.344  1.00  0.00    -0.027 C 
BRANCH   9  10
HETATM   10  C   UNL     1      -2.416  -7.432 -16.269  1.00  0.00     0.053 C 
BRANCH  10  11
HETATM   11  C   UNL     1      -1.619  -8.402 -15.424  1.00  0.00    -0.027 C 
HETATM   12  C   UNL     1      -1.485  -8.403 -14.082  1.00  0.00    -0.027 C 
BRANCH  12  13
HETATM   13  C   UNL     1      -2.117  -7.443 -13.106  1.00  0.00     0.053 C 
BRANCH  13  14
HETATM   14  C   UNL     1      -3.364  -8.056 -12.514  1.00  0.00    -0.027 C 
HETATM   15  C   UNL     1      -3.749  -7.934 -11.227  1.00  0.00    -0.027 C 
BRANCH  15  16
HETATM   16  C   UNL     1      -2.982  -7.178 -10.174  1.00  0.00     0.053 C 
BRANCH  16  17
HETATM   17  C   UNL     1      -1.970  -8.061  -9.487  1.00  0.00    -0.027 C 
HETATM   18  C   UNL     1      -2.041  -8.415  -8.192  1.00  0.00    -0.030 C 
BRANCH  18  19
HETATM   19  C   UNL     1      -3.124  -7.977  -7.238  1.00  0.00     0.027 C 
BRANCH  19  20
HETATM   20  C   UNL     1      -2.495  -7.273  -6.032  1.00  0.00     0.004 C 
BRANCH  20  21
HETATM   21  C   UNL     1      -3.120  -7.755  -4.719  1.00  0.00    -0.000 C 
BRANCH  21  22
HETATM   22  C   UNL     1      -2.036  -8.093  -3.689  1.00  0.00    -0.005 C 
HETATM   23  C   UNL     1      -2.559  -7.929  -2.265  1.00  0.00     0.005 C 
ENDBRANCH  21  22
ENDBRANCH  20  21
ENDBRANCH  19  20
ENDBRANCH  18  19
ENDBRANCH  16  17
ENDBRANCH  15  16
ENDBRANCH  13  14
ENDBRANCH  12  13
ENDBRANCH  10  11
ENDBRANCH   9  10
ENDBRANCH   7   8
ENDBRANCH   6   7
ENDBRANCH   5   6
ENDBRANCH   3   5
ENDBRANCH   1   3
TORSDOF 15
ENDMDL
MODEL 5
REMARK VINA RESULT:      -4.9     33.378     34.643
REMARK  15 active torsions:
REMARK  status: ('A' for Active; 'I' for Inactive)
REMARK    1  A    between atoms: O_1  and  C_22 
REMARK    2  A    between atoms: C_3  and  C_4 
REMARK    3  A    between atoms: C_3  and  C_5 
REMARK    4  A    between atoms: C_4  and  C_6 
REMARK    5  A    between atoms: C_5  and  C_7 
REMARK    6  A    between atoms: C_9  and  C_10 
REMARK    7  A    between atoms: C_9  and  C_13 
REMARK    8  A    between atoms: C_10  and  C_14 
REMARK    9  A    between atoms: C_11  and  C_12 
REMARK   10  A    between atoms: C_12  and  C_16 
REMARK   11  A    between atoms: C_13  and  C_22 
REMARK   12  A    between atoms: C_15  and  C_17 
REMARK   13  A    between atoms: C_15  and  C_20 
REMARK   14  A    between atoms: C_18  and  C_19 
REMARK   15  A    between atoms: C_18  and  C_21 
ROOT
HETATM    1  O   UNL     1     -38.978  -7.282 -15.948  1.00  0.00    -0.776 OA
HETATM    2  H   UNL     1     -38.869  -7.883 -15.197  1.00  0.00     0.167 HD
ENDROOT
BRANCH   1   3
HETATM    3  C   UNL     1     -38.238  -7.417 -17.069  1.00  0.00     0.139 C 
HETATM    4  O   UNL     1     -38.485  -8.315 -17.862  1.00  0.00    -0.650 OA
BRANCH   3   5
HETATM    5  C   UNL     1     -37.102  -6.468 -17.335  1.00  0.00     0.110 C 
BRANCH   5   6
HETATM    6  C   UNL     1     -36.141  -6.360 -16.143  1.00  0.00     0.014 C 
BRANCH   6   7
HETATM    7  C   UNL     1     -35.857  -7.718 -15.487  1.00  0.00     0.027 C 
BRANCH   7   8
HETATM    8  C   UNL     1     -35.123  -7.510 -14.186  1.00  0.00    -0.030 C 
HETATM    9  C   UNL     1     -35.705  -7.282 -12.994  1.00  0.00    -0.027 C 
BRANCH   9  10
HETATM   10  C   UNL     1     -37.191  -7.217 -12.744  1.00  0.00     0.053 C 
BRANCH  10  11
HETATM   11  C   UNL     1     -37.717  -5.811 -12.927  1.00  0.00    -0.027 C 
HETATM   12  C   UNL     1     -37.563  -4.762 -12.093  1.00  0.00    -0.027 C 
BRANCH  12  13
HETATM   13  C   UNL     1     -36.810  -4.744 -10.788  1.00  0.00     0.053 C 
BRANCH  13  14
HETATM   14  C   UNL     1     -37.775  -4.862  -9.632  1.00  0.00    -0.027 C 
HETATM   15  C   UNL     1     -37.970  -5.977  -8.898  1.00  0.00    -0.027 C 
BRANCH  15  16
HETATM   16  C   UNL     1     -37.264  -7.287  -9.131  1.00  0.00     0.053 C 
BRANCH  16  17
HETATM   17  C   UNL     1     -35.806  -7.203  -8.754  1.00  0.00    -0.027 C 
HETATM   18  C   UNL     1     -35.335  -7.454  -7.519  1.00  0.00    -0.030 C 
BRANCH  18  19
HETATM   19  C   UNL     1     -36.186  -7.841  -6.337  1.00  0.00     0.027 C 
BRANCH  19  20
HETATM   20  C   UNL     1     -35.849  -6.940  -5.144  1.00  0.00     0.004 C 
BRANCH  20  21
HETATM   21  C   UNL     1     -37.121  -6.432  -4.456  1.00  0.00    -0.000 C 
BRANCH  21  22
HETATM   22  C   UNL     1     -37.944  -5.556  -5.407  1.00  0.00    -0.005 C 
HETATM   23  C   UNL     1     -37.196  -4.274  -5.761  1.00  0.00     0.005 C 
ENDBRANCH  21  22
ENDBRANCH  20  21
ENDBRANCH  19  20
ENDBRANCH  18  19
ENDBRANCH  16  17
ENDBRANCH  15  16
ENDBRANCH  13  14
ENDBRANCH  12  13
ENDBRANCH  10  11
ENDBRANCH   9  10
ENDBRANCH   7   8
ENDBRANCH   6   7
ENDBRANCH   5   6
ENDBRANCH   3   5
ENDBRANCH   1   3
TORSDOF 15
ENDMDL
MODEL 6
REMARK VINA RESULT:      -4.8     32.261     33.656
REMARK  15 active torsions:
REMARK  status: ('A' for Active; 'I' for Inactive)
REMARK    1  A    between atoms: O_1  and  C_22 
REMARK    2  A    between atoms: C_3  and  C_4 
REMARK    3  A    between atoms: C_3  and  C_5 
REMARK    4  A    between atoms: C_4  and  C_6 
REMARK    5  A    between atoms: C_5  and  C_7 
REMARK    6  A    between atoms: C_9  and  C_10 
REMARK    7  A    between atoms: C_9  and  C_13 
REMARK    8  A    between atoms: C_10  and  C_14 
REMARK    9  A    between atoms: C_11  and  C_12 
REMARK   10  A    between atoms: C_12  and  C_16 
REMARK   11  A    between atoms: C_13  and  C_22 
REMARK   12  A    between atoms: C_15  and  C_17 
REMARK   13  A    between atoms: C_15  and  C_20 
REMARK   14  A    between atoms: C_18  and  C_19 
REMARK   15  A    between atoms: C_18  and  C_21 
ROOT
HETATM    1  O   UNL     1     -35.123  -8.765 -15.258  1.00  0.00    -0.776 OA
HETATM    2  H   UNL     1     -35.293  -9.692 -15.479  1.00  0.00     0.167 HD
ENDROOT
BRANCH   1   3
HETATM    3  C   UNL     1     -34.345  -8.424 -14.210  1.00  0.00     0.139 C 
HETATM    4  O   UNL     1     -33.201  -8.036 -14.397  1.00  0.00    -0.650 OA
BRANCH   3   5
HETATM    5  C   UNL     1     -34.885  -8.534 -12.811  1.00  0.00     0.110 C 
BRANCH   5   6
HETATM    6  C   UNL     1     -35.657  -7.278 -12.382  1.00  0.00     0.014 C 
BRANCH   6   7
HETATM    7  C   UNL     1     -35.403  -6.899 -10.917  1.00  0.00     0.027 C 
BRANCH   7   8
HETATM    8  C   UNL     1     -34.202  -7.650 -10.399  1.00  0.00    -0.030 C 
HETATM    9  C   UNL     1     -34.110  -8.224  -9.185  1.00  0.00    -0.027 C 
BRANCH   9  10
HETATM   10  C   UNL     1     -35.198  -8.240  -8.140  1.00  0.00     0.053 C 
BRANCH  10  11
HETATM   11  C   UNL     1     -34.909  -7.252  -7.033  1.00  0.00    -0.027 C 
HETATM   12  C   UNL     1     -35.785  -6.436  -6.412  1.00  0.00    -0.027 C 
BRANCH  12  13
HETATM   13  C   UNL     1     -37.268  -6.335  -6.666  1.00  0.00     0.053 C 
BRANCH  13  14
HETATM   14  C   UNL     1     -37.520  -5.643  -7.984  1.00  0.00    -0.027 C 
HETATM   15  C   UNL     1     -38.188  -6.181  -9.025  1.00  0.00    -0.027 C 
BRANCH  15  16
HETATM   16  C   UNL     1     -38.774  -7.568  -9.038  1.00  0.00     0.053 C 
BRANCH  16  17
HETATM   17  C   UNL     1     -38.898  -8.103 -10.443  1.00  0.00    -0.027 C 
HETATM   18  C   UNL     1     -38.342  -9.254 -10.860  1.00  0.00    -0.030 C 
BRANCH  18  19
HETATM   19  C   UNL     1     -37.508 -10.168  -9.997  1.00  0.00     0.027 C 
BRANCH  19  20
HETATM   20  C   UNL     1     -36.569 -10.995 -10.881  1.00  0.00     0.004 C 
BRANCH  20  21
HETATM   21  C   UNL     1     -35.630 -11.860 -10.034  1.00  0.00    -0.000 C 
BRANCH  21  22
HETATM   22  C   UNL     1     -34.168 -11.635 -10.437  1.00  0.00    -0.005 C 
HETATM   23  C   UNL     1     -33.232 -11.833  -9.248  1.00  0.00     0.005 C 
ENDBRANCH  21  22
ENDBRANCH  20  21
ENDBRANCH  19  20
ENDBRANCH  18  19
ENDBRANCH  16  17
ENDBRANCH  15  16
ENDBRANCH  13  14
ENDBRANCH  12  13
ENDBRANCH  10  11
ENDBRANCH   9  10
ENDBRANCH   7   8
ENDBRANCH   6   7
ENDBRANCH   5   6
ENDBRANCH   3   5
ENDBRANCH   1   3
TORSDOF 15
ENDMDL
MODEL 7
REMARK VINA RESULT:      -4.8     34.629     36.920
REMARK  15 active torsions:
REMARK  status: ('A' for Active; 'I' for Inactive)
REMARK    1  A    between atoms: O_1  and  C_22 
REMARK    2  A    between atoms: C_3  and  C_4 
REMARK    3  A    between atoms: C_3  and  C_5 
REMARK    4  A    between atoms: C_4  and  C_6 
REMARK    5  A    between atoms: C_5  and  C_7 
REMARK    6  A    between atoms: C_9  and  C_10 
REMARK    7  A    between atoms: C_9  and  C_13 
REMARK    8  A    between atoms: C_10  and  C_14 
REMARK    9  A    between atoms: C_11  and  C_12 
REMARK   10  A    between atoms: C_12  and  C_16 
REMARK   11  A    between atoms: C_13  and  C_22 
REMARK   12  A    between atoms: C_15  and  C_17 
REMARK   13  A    between atoms: C_15  and  C_20 
REMARK   14  A    between atoms: C_18  and  C_19 
REMARK   15  A    between atoms: C_18  and  C_21 
ROOT
HETATM    1  O   UNL     1     -41.676  -9.326 -18.330  1.00  0.00    -0.776 OA
HETATM    2  H   UNL     1     -42.436  -8.977 -17.845  1.00  0.00     0.167 HD
ENDROOT
BRANCH   1   3
HETATM    3  C   UNL     1     -41.443  -8.980 -19.614  1.00  0.00     0.139 C 
HETATM    4  O   UNL     1     -42.217  -9.331 -20.493  1.00  0.00    -0.650 OA
BRANCH   3   5
HETATM    5  C   UNL     1     -40.222  -8.174 -19.962  1.00  0.00     0.110 C 
BRANCH   5   6
HETATM    6  C   UNL     1     -39.504  -7.636 -18.716  1.00  0.00     0.014 C 
BRANCH   6   7
HETATM    7  C   UNL     1     -38.061  -7.203 -19.006  1.00  0.00     0.027 C 
BRANCH   7   8
HETATM    8  C   UNL     1     -38.063  -6.021 -19.942  1.00  0.00    -0.030 C 
HETATM    9  C   UNL     1     -37.021  -5.628 -20.700  1.00  0.00    -0.027 C 
BRANCH   9  10
HETATM   10  C   UNL     1     -35.680  -6.314 -20.764  1.00  0.00     0.053 C 
BRANCH  10  11
HETATM   11  C   UNL     1     -35.602  -7.257 -21.945  1.00  0.00    -0.027 C 
HETATM   12  C   UNL     1     -35.712  -8.601 -21.929  1.00  0.00    -0.027 C 
BRANCH  12  13
HETATM   13  C   UNL     1     -35.958  -9.478 -20.728  1.00  0.00     0.053 C 
BRANCH  13  14
HETATM   14  C   UNL     1     -34.644  -9.851 -20.082  1.00  0.00    -0.027 C 
HETATM   15  C   UNL     1     -34.319  -9.610 -18.796  1.00  0.00    -0.027 C 
BRANCH  15  16
HETATM   16  C   UNL     1     -35.214  -8.913 -17.805  1.00  0.00     0.053 C 
BRANCH  16  17
HETATM   17  C   UNL     1     -34.675  -7.553 -17.435  1.00  0.00    -0.027 C 
HETATM   18  C   UNL     1     -34.982  -6.910 -16.295  1.00  0.00    -0.030 C 
BRANCH  18  19
HETATM   19  C   UNL     1     -35.910  -7.441 -15.231  1.00  0.00     0.027 C 
BRANCH  19  20
HETATM   20  C   UNL     1     -37.352  -7.045 -15.562  1.00  0.00     0.004 C 
BRANCH  20  21
HETATM   21  C   UNL     1     -37.901  -6.044 -14.540  1.00  0.00    -0.000 C 
BRANCH  21  22
HETATM   22  C   UNL     1     -37.547  -4.606 -14.938  1.00  0.00    -0.005 C 
HETATM   23  C   UNL     1     -37.740  -4.386 -16.435  1.00  0.00     0.005 C 
ENDBRANCH  21  22
ENDBRANCH  20  21
ENDBRANCH  19  20
ENDBRANCH  18  19
ENDBRANCH  16  17
ENDBRANCH  15  16
ENDBRANCH  13  14
ENDBRANCH  12  13
ENDBRANCH  10  11
ENDBRANCH   9  10
ENDBRANCH   7   8
ENDBRANCH   6   7
ENDBRANCH   5   6
ENDBRANCH   3   5
ENDBRANCH   1   3
TORSDOF 15
ENDMDL
MODEL 8
REMARK VINA RESULT:      -4.8     33.498     35.983
REMARK  15 active torsions:
REMARK  status: ('A' for Active; 'I' for Inactive)
REMARK    1  A    between atoms: O_1  and  C_22 
REMARK    2  A    between atoms: C_3  and  C_4 
REMARK    3  A    between atoms: C_3  and  C_5 
REMARK    4  A    between atoms: C_4  and  C_6 
REMARK    5  A    between atoms: C_5  and  C_7 
REMARK    6  A    between atoms: C_9  and  C_10 
REMARK    7  A    between atoms: C_9  and  C_13 
REMARK    8  A    between atoms: C_10  and  C_14 
REMARK    9  A    between atoms: C_11  and  C_12 
REMARK   10  A    between atoms: C_12  and  C_16 
REMARK   11  A    between atoms: C_13  and  C_22 
REMARK   12  A    between atoms: C_15  and  C_17 
REMARK   13  A    between atoms: C_15  and  C_20 
REMARK   14  A    between atoms: C_18  and  C_19 
REMARK   15  A    between atoms: C_18  and  C_21 
ROOT
HETATM    1  O   UNL     1     -33.470  -9.673 -13.760  1.00  0.00    -0.776 OA
HETATM    2  H   UNL     1     -33.182  -8.767 -13.943  1.00  0.00     0.167 HD
ENDROOT
BRANCH   1   3
HETATM    3  C   UNL     1     -34.718  -9.937 -13.318  1.00  0.00     0.139 C 
HETATM    4  O   UNL     1     -35.555 -10.393 -14.083  1.00  0.00    -0.650 OA
BRANCH   3   5
HETATM    5  C   UNL     1     -35.077  -9.659 -11.884  1.00  0.00     0.110 C 
BRANCH   5   6
HETATM    6  C   UNL     1     -36.163  -8.581 -11.753  1.00  0.00     0.014 C 
BRANCH   6   7
HETATM    7  C   UNL     1     -35.675  -7.193 -12.187  1.00  0.00     0.027 C 
BRANCH   7   8
HETATM    8  C   UNL     1     -36.659  -6.144 -11.735  1.00  0.00    -0.030 C 
HETATM    9  C   UNL     1     -37.697  -5.689 -12.461  1.00  0.00    -0.027 C 
BRANCH   9  10
HETATM   10  C   UNL     1     -38.073  -6.163 -13.842  1.00  0.00     0.053 C 
BRANCH  10  11
HETATM   11  C   UNL     1     -37.319  -5.400 -14.908  1.00  0.00    -0.027 C 
HETATM   12  C   UNL     1     -36.393  -5.883 -15.762  1.00  0.00    -0.027 C 
BRANCH  12  13
HETATM   13  C   UNL     1     -35.909  -7.307 -15.866  1.00  0.00     0.053 C 
BRANCH  13  14
HETATM   14  C   UNL     1     -34.617  -7.358 -16.647  1.00  0.00    -0.027 C 
HETATM   15  C   UNL     1     -34.518  -7.646 -17.961  1.00  0.00    -0.027 C 
BRANCH  15  16
HETATM   16  C   UNL     1     -35.686  -7.979 -18.852  1.00  0.00     0.053 C 
BRANCH  16  17
HETATM   17  C   UNL     1     -35.906  -6.912 -19.896  1.00  0.00    -0.027 C 
HETATM   18  C   UNL     1     -36.981  -6.106 -19.929  1.00  0.00    -0.030 C 
BRANCH  18  19
HETATM   19  C   UNL     1     -38.123  -6.153 -18.944  1.00  0.00     0.027 C 
BRANCH  19  20
HETATM   20  C   UNL     1     -39.241  -7.044 -19.496  1.00  0.00     0.004 C 
BRANCH  20  21
HETATM   21  C   UNL     1     -39.342  -8.356 -18.711  1.00  0.00    -0.000 C 
BRANCH  21  22
HETATM   22  C   UNL     1     -39.301  -8.095 -17.201  1.00  0.00    -0.005 C 
HETATM   23  C   UNL     1     -38.820  -9.327 -16.441  1.00  0.00     0.005 C 
ENDBRANCH  21  22
ENDBRANCH  20  21
ENDBRANCH  19  20
ENDBRANCH  18  19
ENDBRANCH  16  17
ENDBRANCH  15  16
ENDBRANCH  13  14
ENDBRANCH  12  13
ENDBRANCH  10  11
ENDBRANCH   9  10
ENDBRANCH   7   8
ENDBRANCH   6   7
ENDBRANCH   5   6
ENDBRANCH   3   5
ENDBRANCH   1   3
TORSDOF 15
ENDMDL
MODEL 9
REMARK VINA RESULT:      -4.8     33.104     34.714
REMARK  15 active torsions:
REMARK  status: ('A' for Active; 'I' for Inactive)
REMARK    1  A    between atoms: O_1  and  C_22 
REMARK    2  A    between atoms: C_3  and  C_4 
REMARK    3  A    between atoms: C_3  and  C_5 
REMARK    4  A    between atoms: C_4  and  C_6 
REMARK    5  A    between atoms: C_5  and  C_7 
REMARK    6  A    between atoms: C_9  and  C_10 
REMARK    7  A    between atoms: C_9  and  C_13 
REMARK    8  A    between atoms: C_10  and  C_14 
REMARK    9  A    between atoms: C_11  and  C_12 
REMARK   10  A    between atoms: C_12  and  C_16 
REMARK   11  A    between atoms: C_13  and  C_22 
REMARK   12  A    between atoms: C_15  and  C_17 
REMARK   13  A    between atoms: C_15  and  C_20 
REMARK   14  A    between atoms: C_18  and  C_19 
REMARK   15  A    between atoms: C_18  and  C_21 
ROOT
HETATM    1  O   UNL     1     -38.673  -7.466  -8.071  1.00  0.00    -0.776 OA
HETATM    2  H   UNL     1     -39.510  -7.913  -8.260  1.00  0.00     0.167 HD
ENDROOT
BRANCH   1   3
HETATM    3  C   UNL     1     -38.241  -6.434  -8.827  1.00  0.00     0.139 C 
HETATM    4  O   UNL     1     -37.675  -5.486  -8.304  1.00  0.00    -0.650 OA
BRANCH   3   5
HETATM    5  C   UNL     1     -38.469  -6.451 -10.314  1.00  0.00     0.110 C 
BRANCH   5   6
HETATM    6  C   UNL     1     -37.685  -5.347 -11.037  1.00  0.00     0.014 C 
BRANCH   6   7
HETATM    7  C   UNL     1     -37.689  -5.520 -12.561  1.00  0.00     0.027 C 
BRANCH   7   8
HETATM    8  C   UNL     1     -38.266  -6.867 -12.918  1.00  0.00    -0.030 C 
HETATM    9  C   UNL     1     -38.637  -7.249 -14.155  1.00  0.00    -0.027 C 
BRANCH   9  10
HETATM   10  C   UNL     1     -38.519  -6.411 -15.402  1.00  0.00     0.053 C 
BRANCH  10  11
HETATM   11  C   UNL     1     -37.791  -7.157 -16.498  1.00  0.00    -0.027 C 
HETATM   12  C   UNL     1     -36.459  -7.226 -16.698  1.00  0.00    -0.027 C 
BRANCH  12  13
HETATM   13  C   UNL     1     -35.381  -6.589 -15.859  1.00  0.00     0.053 C 
BRANCH  13  14
HETATM   14  C   UNL     1     -34.259  -7.573 -15.624  1.00  0.00    -0.027 C 
HETATM   15  C   UNL     1     -34.138  -8.362 -14.537  1.00  0.00    -0.027 C 
BRANCH  15  16
HETATM   16  C   UNL     1     -35.099  -8.370 -13.376  1.00  0.00     0.053 C 
BRANCH  16  17
HETATM   17  C   UNL     1     -34.713  -7.353 -12.332  1.00  0.00    -0.027 C 
HETATM   18  C   UNL     1     -34.525  -7.645 -11.033  1.00  0.00    -0.030 C 
BRANCH  18  19
HETATM   19  C   UNL     1     -34.682  -9.018 -10.430  1.00  0.00     0.027 C 
BRANCH  19  20
HETATM   20  C   UNL     1     -35.736  -8.975  -9.319  1.00  0.00     0.004 C 
BRANCH  20  21
HETATM   21  C   UNL     1     -35.082  -8.904  -7.935  1.00  0.00    -0.000 C 
BRANCH  21  22
HETATM   22  C   UNL     1     -34.810  -7.450  -7.534  1.00  0.00    -0.005 C 
HETATM   23  C   UNL     1     -35.364  -7.149  -6.144  1.00  0.00     0.005 C 
ENDBRANCH  21  22
ENDBRANCH  20  21
ENDBRANCH  19  20
ENDBRANCH  18  19
ENDBRANCH  16  17
ENDBRANCH  15  16
ENDBRANCH  13  14
ENDBRANCH  12  13
ENDBRANCH  10  11
ENDBRANCH   9  10
ENDBRANCH   7   8
ENDBRANCH   6   7
ENDBRANCH   5   6
ENDBRANCH   3   5
ENDBRANCH   1   3
TORSDOF 15
ENDMDL
MODEL 10
REMARK VINA RESULT:      -4.8     32.899     34.207
REMARK  15 active torsions:
REMARK  status: ('A' for Active; 'I' for Inactive)
REMARK    1  A    between atoms: O_1  and  C_22 
REMARK    2  A    between atoms: C_3  and  C_4 
REMARK    3  A    between atoms: C_3  and  C_5 
REMARK    4  A    between atoms: C_4  and  C_6 
REMARK    5  A    between atoms: C_5  and  C_7 
REMARK    6  A    between atoms: C_9  and  C_10 
REMARK    7  A    between atoms: C_9  and  C_13 
REMARK    8  A    between atoms: C_10  and  C_14 
REMARK    9  A    between atoms: C_11  and  C_12 
REMARK   10  A    between atoms: C_12  and  C_16 
REMARK   11  A    between atoms: C_13  and  C_22 
REMARK   12  A    between atoms: C_15  and  C_17 
REMARK   13  A    between atoms: C_15  and  C_20 
REMARK   14  A    between atoms: C_18  and  C_19 
REMARK   15  A    between atoms: C_18  and  C_21 
ROOT
HETATM    1  O   UNL     1     -35.378  -9.155 -14.623  1.00  0.00    -0.776 OA
HETATM    2  H   UNL     1     -35.289  -9.834 -13.939  1.00  0.00     0.167 HD
ENDROOT
BRANCH   1   3
HETATM    3  C   UNL     1     -34.431  -8.211 -14.804  1.00  0.00     0.139 C 
HETATM    4  O   UNL     1     -33.421  -8.216 -14.116  1.00  0.00    -0.650 OA
BRANCH   3   5
HETATM    5  C   UNL     1     -34.627  -7.146 -15.847  1.00  0.00     0.110 C 
BRANCH   5   6
HETATM    6  C   UNL     1     -35.554  -7.604 -16.982  1.00  0.00     0.014 C 
BRANCH   6   7
HETATM    7  C   UNL     1     -36.780  -6.696 -17.148  1.00  0.00     0.027 C 
BRANCH   7   8
HETATM    8  C   UNL     1     -36.465  -5.317 -16.625  1.00  0.00    -0.030 C 
HETATM    9  C   UNL     1     -37.190  -4.651 -15.706  1.00  0.00    -0.027 C 
BRANCH   9  10
HETATM   10  C   UNL     1     -38.427  -5.174 -15.022  1.00  0.00     0.053 C 
BRANCH  10  11
HETATM   11  C   UNL     1     -38.082  -6.237 -14.002  1.00  0.00    -0.027 C 
HETATM   12  C   UNL     1     -37.701  -6.052 -12.721  1.00  0.00    -0.027 C 
BRANCH  12  13
HETATM   13  C   UNL     1     -37.550  -4.736 -12.000  1.00  0.00     0.053 C 
BRANCH  13  14
HETATM   14  C   UNL     1     -38.131  -4.839 -10.610  1.00  0.00    -0.027 C 
HETATM   15  C   UNL     1     -37.583  -5.536  -9.592  1.00  0.00    -0.027 C 
BRANCH  15  16
HETATM   16  C   UNL     1     -36.311  -6.335  -9.693  1.00  0.00     0.053 C 
BRANCH  16  17
HETATM   17  C   UNL     1     -36.519  -7.763  -9.252  1.00  0.00    -0.027 C 
HETATM   18  C   UNL     1     -35.802  -8.361  -8.284  1.00  0.00    -0.030 C 
BRANCH  18  19
HETATM   19  C   UNL     1     -34.686  -7.705  -7.510  1.00  0.00     0.027 C 
BRANCH  19  20
HETATM   20  C   UNL     1     -35.160  -7.397  -6.086  1.00  0.00     0.004 C 
BRANCH  20  21
HETATM   21  C   UNL     1     -35.981  -6.104  -6.042  1.00  0.00    -0.000 C 
BRANCH  21  22
HETATM   22  C   UNL     1     -37.002  -6.144  -4.898  1.00  0.00    -0.005 C 
HETATM   23  C   UNL     1     -38.344  -5.565  -5.337  1.00  0.00     0.005 C 
ENDBRANCH  21  22
ENDBRANCH  20  21
ENDBRANCH  19  20
ENDBRANCH  18  19
ENDBRANCH  16  17
ENDBRANCH  15  16
ENDBRANCH  13  14
ENDBRANCH  12  13
ENDBRANCH  10  11
ENDBRANCH   9  10
ENDBRANCH   7   8
ENDBRANCH   6   7
ENDBRANCH   5   6
ENDBRANCH   3   5
ENDBRANCH   1   3
TORSDOF 15
ENDMDL
MODEL 11
REMARK VINA RESULT:      -4.7     34.183     35.831
REMARK  15 active torsions:
REMARK  status: ('A' for Active; 'I' for Inactive)
REMARK    1  A    between atoms: O_1  and  C_22 
REMARK    2  A    between atoms: C_3  and  C_4 
REMARK    3  A    between atoms: C_3  and  C_5 
REMARK    4  A    between atoms: C_4  and  C_6 
REMARK    5  A    between atoms: C_5  and  C_7 
REMARK    6  A    between atoms: C_9  and  C_10 
REMARK    7  A    between atoms: C_9  and  C_13 
REMARK    8  A    between atoms: C_10  and  C_14 
REMARK    9  A    between atoms: C_11  and  C_12 
REMARK   10  A    between atoms: C_12  and  C_16 
REMARK   11  A    between atoms: C_13  and  C_22 
REMARK   12  A    between atoms: C_15  and  C_17 
REMARK   13  A    between atoms: C_15  and  C_20 
REMARK   14  A    between atoms: C_18  and  C_19 
REMARK   15  A    between atoms: C_18  and  C_21 
ROOT
HETATM    1  O   UNL     1     -29.968  20.696 -13.290  1.00  0.00    -0.776 OA
HETATM    2  H   UNL     1     -30.633  21.395 -13.224  1.00  0.00     0.167 HD
ENDROOT
BRANCH   1   3
HETATM    3  C   UNL     1     -29.815  19.776 -12.313  1.00  0.00     0.139 C 
HETATM    4  O   UNL     1     -30.430  19.890 -11.263  1.00  0.00    -0.650 OA
BRANCH   3   5
HETATM    5  C   UNL     1     -28.876  18.619 -12.517  1.00  0.00     0.110 C 
BRANCH   5   6
HETATM    6  C   UNL     1     -28.232  18.628 -13.911  1.00  0.00     0.014 C 
BRANCH   6   7
HETATM    7  C   UNL     1     -28.806  17.546 -14.834  1.00  0.00     0.027 C 
BRANCH   7   8
HETATM    8  C   UNL     1     -28.857  18.061 -16.250  1.00  0.00    -0.030 C 
HETATM    9  C   UNL     1     -27.903  17.872 -17.181  1.00  0.00    -0.027 C 
BRANCH   9  10
HETATM   10  C   UNL     1     -26.628  17.093 -16.979  1.00  0.00     0.053 C 
BRANCH  10  11
HETATM   11  C   UNL     1     -26.382  16.139 -18.127  1.00  0.00    -0.027 C 
HETATM   12  C   UNL     1     -26.715  14.834 -18.194  1.00  0.00    -0.027 C 
BRANCH  12  13
HETATM   13  C   UNL     1     -27.433  14.025 -17.143  1.00  0.00     0.053 C 
BRANCH  13  14
HETATM   14  C   UNL     1     -26.438  13.218 -16.343  1.00  0.00    -0.027 C 
HETATM   15  C   UNL     1     -26.145  13.422 -15.042  1.00  0.00    -0.027 C 
BRANCH  15  16
HETATM   16  C   UNL     1     -26.757  14.501 -14.188  1.00  0.00     0.053 C 
BRANCH  16  17
HETATM   17  C   UNL     1     -25.774  15.613 -13.914  1.00  0.00    -0.027 C 
HETATM   18  C   UNL     1     -25.570  16.151 -12.699  1.00  0.00    -0.030 C 
BRANCH  18  19
HETATM   19  C   UNL     1     -26.293  15.736 -11.443  1.00  0.00     0.027 C 
BRANCH  19  20
HETATM   20  C   UNL     1     -25.446  14.716 -10.675  1.00  0.00     0.004 C 
BRANCH  20  21
HETATM   21  C   UNL     1     -26.312  13.574 -10.132  1.00  0.00    -0.000 C 
BRANCH  21  22
HETATM   22  C   UNL     1     -26.918  12.755 -11.278  1.00  0.00    -0.005 C 
HETATM   23  C   UNL     1     -25.947  11.681 -11.761  1.00  0.00     0.005 C 
ENDBRANCH  21  22
ENDBRANCH  20  21
ENDBRANCH  19  20
ENDBRANCH  18  19
ENDBRANCH  16  17
ENDBRANCH  15  16
ENDBRANCH  13  14
ENDBRANCH  12  13
ENDBRANCH  10  11
ENDBRANCH   9  10
ENDBRANCH   7   8
ENDBRANCH   6   7
ENDBRANCH   5   6
ENDBRANCH   3   5
ENDBRANCH   1   3
TORSDOF 15
ENDMDL
MODEL 12
REMARK VINA RESULT:      -4.7     32.526     33.906
REMARK  15 active torsions:
REMARK  status: ('A' for Active; 'I' for Inactive)
REMARK    1  A    between atoms: O_1  and  C_22 
REMARK    2  A    between atoms: C_3  and  C_4 
REMARK    3  A    between atoms: C_3  and  C_5 
REMARK    4  A    between atoms: C_4  and  C_6 
REMARK    5  A    between atoms: C_5  and  C_7 
REMARK    6  A    between atoms: C_9  and  C_10 
REMARK    7  A    between atoms: C_9  and  C_13 
REMARK    8  A    between atoms: C_10  and  C_14 
REMARK    9  A    between atoms: C_11  and  C_12 
REMARK   10  A    between atoms: C_12  and  C_16 
REMARK   11  A    between atoms: C_13  and  C_22 
REMARK   12  A    between atoms: C_15  and  C_17 
REMARK   13  A    between atoms: C_15  and  C_20 
REMARK   14  A    between atoms: C_18  and  C_19 
REMARK   15  A    between atoms: C_18  and  C_21 
ROOT
HETATM    1  O   UNL     1     -33.888 -10.670 -12.420  1.00  0.00    -0.776 OA
HETATM    2  H   UNL     1     -33.338 -11.298 -12.910  1.00  0.00     0.167 HD
ENDROOT
BRANCH   1   3
HETATM    3  C   UNL     1     -34.822 -11.091 -11.541  1.00  0.00     0.139 C 
HETATM    4  O   UNL     1     -35.981 -11.236 -11.902  1.00  0.00    -0.650 OA
BRANCH   3   5
HETATM    5  C   UNL     1     -34.435 -11.368 -10.115  1.00  0.00     0.110 C 
BRANCH   5   6
HETATM    6  C   UNL     1     -33.767 -10.159  -9.445  1.00  0.00     0.014 C 
BRANCH   6   7
HETATM    7  C   UNL     1     -34.655  -8.907  -9.465  1.00  0.00     0.027 C 
BRANCH   7   8
HETATM    8  C   UNL     1     -33.980  -7.819 -10.262  1.00  0.00    -0.030 C 
HETATM    9  C   UNL     1     -34.485  -7.242 -11.369  1.00  0.00    -0.027 C 
BRANCH   9  10
HETATM   10  C   UNL     1     -35.820  -7.563 -11.992  1.00  0.00     0.053 C 
BRANCH  10  11
HETATM   11  C   UNL     1     -36.684  -6.326 -12.103  1.00  0.00    -0.027 C 
HETATM   12  C   UNL     1     -37.274  -5.645 -11.100  1.00  0.00    -0.027 C 
BRANCH  12  13
HETATM   13  C   UNL     1     -37.191  -5.948  -9.625  1.00  0.00     0.053 C 
BRANCH  13  14
HETATM   14  C   UNL     1     -38.531  -6.428  -9.120  1.00  0.00    -0.027 C 
HETATM   15  C   UNL     1     -38.751  -7.614  -8.517  1.00  0.00    -0.027 C 
BRANCH  15  16
HETATM   16  C   UNL     1     -37.690  -8.655  -8.270  1.00  0.00     0.053 C 
BRANCH  16  17
HETATM   17  C   UNL     1     -37.642  -9.061  -6.818  1.00  0.00    -0.027 C 
HETATM   18  C   UNL     1     -36.718  -8.621  -5.946  1.00  0.00    -0.030 C 
BRANCH  18  19
HETATM   19  C   UNL     1     -35.594  -7.676  -6.289  1.00  0.00     0.027 C 
BRANCH  19  20
HETATM   20  C   UNL     1     -35.999  -6.243  -5.927  1.00  0.00     0.004 C 
BRANCH  20  21
HETATM   21  C   UNL     1     -37.186  -6.230  -4.958  1.00  0.00    -0.000 C 
BRANCH  21  22
HETATM   22  C   UNL     1     -38.192  -5.139  -5.342  1.00  0.00    -0.005 C 
HETATM   23  C   UNL     1     -37.629  -4.226  -6.427  1.00  0.00     0.005 C 
ENDBRANCH  21  22
ENDBRANCH  20  21
ENDBRANCH  19  20
ENDBRANCH  18  19
ENDBRANCH  16  17
ENDBRANCH  15  16
ENDBRANCH  13  14
ENDBRANCH  12  13
ENDBRANCH  10  11
ENDBRANCH   9  10
ENDBRANCH   7   8
ENDBRANCH   6   7
ENDBRANCH   5   6
ENDBRANCH   3   5
ENDBRANCH   1   3
TORSDOF 15
ENDMDL
MODEL 13
REMARK VINA RESULT:      -4.7     33.665     34.718
REMARK  15 active torsions:
REMARK  status: ('A' for Active; 'I' for Inactive)
REMARK    1  A    between atoms: O_1  and  C_22 
REMARK    2  A    between atoms: C_3  and  C_4 
REMARK    3  A    between atoms: C_3  and  C_5 
REMARK    4  A    between atoms: C_4  and  C_6 
REMARK    5  A    between atoms: C_5  and  C_7 
REMARK    6  A    between atoms: C_9  and  C_10 
REMARK    7  A    between atoms: C_9  and  C_13 
REMARK    8  A    between atoms: C_10  and  C_14 
REMARK    9  A    between atoms: C_11  and  C_12 
REMARK   10  A    between atoms: C_12  and  C_16 
REMARK   11  A    between atoms: C_13  and  C_22 
REMARK   12  A    between atoms: C_15  and  C_17 
REMARK   13  A    between atoms: C_15  and  C_20 
REMARK   14  A    between atoms: C_18  and  C_19 
REMARK   15  A    between atoms: C_18  and  C_21 
ROOT
HETATM    1  O   UNL     1     -26.848  18.393 -10.667  1.00  0.00    -0.776 OA
HETATM    2  H   UNL     1     -27.634  18.955 -10.709  1.00  0.00     0.167 HD
ENDROOT
BRANCH   1   3
HETATM    3  C   UNL     1     -26.557  17.517 -11.652  1.00  0.00     0.139 C 
HETATM    4  O   UNL     1     -25.425  17.067 -11.757  1.00  0.00    -0.650 OA
BRANCH   3   5
HETATM    5  C   UNL     1     -27.626  17.106 -12.627  1.00  0.00     0.110 C 
BRANCH   5   6
HETATM    6  C   UNL     1     -28.874  16.552 -11.925  1.00  0.00     0.014 C 
BRANCH   6   7
HETATM    7  C   UNL     1     -29.114  15.068 -12.230  1.00  0.00     0.027 C 
BRANCH   7   8
HETATM    8  C   UNL     1     -28.038  14.559 -13.156  1.00  0.00    -0.030 C 
HETATM    9  C   UNL     1     -27.093  13.658 -12.827  1.00  0.00    -0.027 C 
BRANCH   9  10
HETATM   10  C   UNL     1     -26.958  12.983 -11.486  1.00  0.00     0.053 C 
BRANCH  10  11
HETATM   11  C   UNL     1     -25.796  13.551 -10.701  1.00  0.00    -0.027 C 
HETATM   12  C   UNL     1     -25.851  14.379  -9.638  1.00  0.00    -0.027 C 
BRANCH  12  13
HETATM   13  C   UNL     1     -27.091  14.917  -8.970  1.00  0.00     0.053 C 
BRANCH  13  14
HETATM   14  C   UNL     1     -27.618  13.913  -7.973  1.00  0.00    -0.027 C 
HETATM   15  C   UNL     1     -27.118  13.715  -6.736  1.00  0.00    -0.027 C 
BRANCH  15  16
HETATM   16  C   UNL     1     -25.939  14.458  -6.163  1.00  0.00     0.053 C 
BRANCH  16  17
HETATM   17  C   UNL     1     -26.342  15.309  -4.985  1.00  0.00    -0.027 C 
HETATM   18  C   UNL     1     -26.658  16.613  -5.075  1.00  0.00    -0.030 C 
BRANCH  18  19
HETATM   19  C   UNL     1     -26.646  17.415  -6.352  1.00  0.00     0.027 C 
BRANCH  19  20
HETATM   20  C   UNL     1     -28.033  18.019  -6.593  1.00  0.00     0.004 C 
BRANCH  20  21
HETATM   21  C   UNL     1     -29.140  17.085  -6.094  1.00  0.00    -0.000 C 
BRANCH  21  22
HETATM   22  C   UNL     1     -30.084  16.694  -7.237  1.00  0.00    -0.005 C 
HETATM   23  C   UNL     1     -29.785  17.500  -8.498  1.00  0.00     0.005 C 
ENDBRANCH  21  22
ENDBRANCH  20  21
ENDBRANCH  19  20
ENDBRANCH  18  19
ENDBRANCH  16  17
ENDBRANCH  15  16
ENDBRANCH  13  14
ENDBRANCH  12  13
ENDBRANCH  10  11
ENDBRANCH   9  10
ENDBRANCH   7   8
ENDBRANCH   6   7
ENDBRANCH   5   6
ENDBRANCH   3   5
ENDBRANCH   1   3
TORSDOF 15
ENDMDL
MODEL 14
REMARK VINA RESULT:      -4.6     34.878     36.400
REMARK  15 active torsions:
REMARK  status: ('A' for Active; 'I' for Inactive)
REMARK    1  A    between atoms: O_1  and  C_22 
REMARK    2  A    between atoms: C_3  and  C_4 
REMARK    3  A    between atoms: C_3  and  C_5 
REMARK    4  A    between atoms: C_4  and  C_6 
REMARK    5  A    between atoms: C_5  and  C_7 
REMARK    6  A    between atoms: C_9  and  C_10 
REMARK    7  A    between atoms: C_9  and  C_13 
REMARK    8  A    between atoms: C_10  and  C_14 
REMARK    9  A    between atoms: C_11  and  C_12 
REMARK   10  A    between atoms: C_12  and  C_16 
REMARK   11  A    between atoms: C_13  and  C_22 
REMARK   12  A    between atoms: C_15  and  C_17 
REMARK   13  A    between atoms: C_15  and  C_20 
REMARK   14  A    between atoms: C_18  and  C_19 
REMARK   15  A    between atoms: C_18  and  C_21 
ROOT
HETATM    1  O   UNL     1     -40.505 -10.710 -12.878  1.00  0.00    -0.776 OA
HETATM    2  H   UNL     1     -41.273 -11.154 -12.492  1.00  0.00     0.167 HD
ENDROOT
BRANCH   1   3
HETATM    3  C   UNL     1     -40.616  -9.508 -13.480  1.00  0.00     0.139 C 
HETATM    4  O   UNL     1     -41.721  -9.029 -13.693  1.00  0.00    -0.650 OA
BRANCH   3   5
HETATM    5  C   UNL     1     -39.378  -8.764 -13.900  1.00  0.00     0.110 C 
BRANCH   5   6
HETATM    6  C   UNL     1     -39.586  -7.966 -15.195  1.00  0.00     0.014 C 
BRANCH   6   7
HETATM    7  C   UNL     1     -38.427  -8.134 -16.186  1.00  0.00     0.027 C 
BRANCH   7   8
HETATM    8  C   UNL     1     -38.937  -7.971 -17.596  1.00  0.00    -0.030 C 
HETATM    9  C   UNL     1     -38.436  -7.116 -18.508  1.00  0.00    -0.027 C 
BRANCH   9  10
HETATM   10  C   UNL     1     -37.266  -6.191 -18.290  1.00  0.00     0.053 C 
BRANCH  10  11
HETATM   11  C   UNL     1     -37.720  -4.844 -17.775  1.00  0.00    -0.027 C 
HETATM   12  C   UNL     1     -37.572  -4.350 -16.529  1.00  0.00    -0.027 C 
BRANCH  12  13
HETATM   13  C   UNL     1     -36.899  -5.022 -15.360  1.00  0.00     0.053 C 
BRANCH  13  14
HETATM   14  C   UNL     1     -37.722  -4.830 -14.108  1.00  0.00    -0.027 C 
HETATM   15  C   UNL     1     -37.609  -5.571 -12.987  1.00  0.00    -0.027 C 
BRANCH  15  16
HETATM   16  C   UNL     1     -36.651  -6.721 -12.816  1.00  0.00     0.053 C 
BRANCH  16  17
HETATM   17  C   UNL     1     -35.823  -6.569 -11.564  1.00  0.00    -0.027 C 
HETATM   18  C   UNL     1     -36.224  -6.976 -10.347  1.00  0.00    -0.030 C 
BRANCH  18  19
HETATM   19  C   UNL     1     -37.552  -7.626 -10.051  1.00  0.00     0.027 C 
BRANCH  19  20
HETATM   20  C   UNL     1     -38.391  -6.703  -9.162  1.00  0.00     0.004 C 
BRANCH  20  21
HETATM   21  C   UNL     1     -37.555  -5.533  -8.632  1.00  0.00    -0.000 C 
BRANCH  21  22
HETATM   22  C   UNL     1     -37.487  -5.559  -7.101  1.00  0.00    -0.005 C 
HETATM   23  C   UNL     1     -38.244  -6.757  -6.536  1.00  0.00     0.005 C 
ENDBRANCH  21  22
ENDBRANCH  20  21
ENDBRANCH  19  20
ENDBRANCH  18  19
ENDBRANCH  16  17
ENDBRANCH  15  16
ENDBRANCH  13  14
ENDBRANCH  12  13
ENDBRANCH  10  11
ENDBRANCH   9  10
ENDBRANCH   7   8
ENDBRANCH   6   7
ENDBRANCH   5   6
ENDBRANCH   3   5
ENDBRANCH   1   3
TORSDOF 15
ENDMDL
MODEL 15
REMARK VINA RESULT:      -4.6     33.126     34.436
REMARK  15 active torsions:
REMARK  status: ('A' for Active; 'I' for Inactive)
REMARK    1  A    between atoms: O_1  and  C_22 
REMARK    2  A    between atoms: C_3  and  C_4 
REMARK    3  A    between atoms: C_3  and  C_5 
REMARK    4  A    between atoms: C_4  and  C_6 
REMARK    5  A    between atoms: C_5  and  C_7 
REMARK    6  A    between atoms: C_9  and  C_10 
REMARK    7  A    between atoms: C_9  and  C_13 
REMARK    8  A    between atoms: C_10  and  C_14 
REMARK    9  A    between atoms: C_11  and  C_12 
REMARK   10  A    between atoms: C_12  and  C_16 
REMARK   11  A    between atoms: C_13  and  C_22 
REMARK   12  A    between atoms: C_15  and  C_17 
REMARK   13  A    between atoms: C_15  and  C_20 
REMARK   14  A    between atoms: C_18  and  C_19 
REMARK   15  A    between atoms: C_18  and  C_21 
ROOT
HETATM    1  O   UNL     1     -39.093  -7.364 -15.919  1.00  0.00    -0.776 OA
HETATM    2  H   UNL     1     -39.271  -7.997 -15.209  1.00  0.00     0.167 HD
ENDROOT
BRANCH   1   3
HETATM    3  C   UNL     1     -38.279  -7.674 -16.950  1.00  0.00     0.139 C 
HETATM    4  O   UNL     1     -38.491  -8.676 -17.618  1.00  0.00    -0.650 OA
BRANCH   3   5
HETATM    5  C   UNL     1     -37.104  -6.791 -17.267  1.00  0.00     0.110 C 
BRANCH   5   6
HETATM    6  C   UNL     1     -36.186  -6.583 -16.054  1.00  0.00     0.014 C 
BRANCH   6   7
HETATM    7  C   UNL     1     -35.905  -7.886 -15.294  1.00  0.00     0.027 C 
BRANCH   7   8
HETATM    8  C   UNL     1     -35.075  -7.591 -14.070  1.00  0.00    -0.030 C 
HETATM    9  C   UNL     1     -35.565  -7.342 -12.841  1.00  0.00    -0.027 C 
BRANCH   9  10
HETATM   10  C   UNL     1     -37.025  -7.338 -12.466  1.00  0.00     0.053 C 
BRANCH  10  11
HETATM   11  C   UNL     1     -37.656  -5.989 -12.733  1.00  0.00    -0.027 C 
HETATM   12  C   UNL     1     -37.557  -4.874 -11.980  1.00  0.00    -0.027 C 
BRANCH  12  13
HETATM   13  C   UNL     1     -36.774  -4.708 -10.702  1.00  0.00     0.053 C 
BRANCH  13  14
HETATM   14  C   UNL     1     -37.709  -4.742  -9.516  1.00  0.00    -0.027 C 
HETATM   15  C   UNL     1     -37.898  -5.807  -8.710  1.00  0.00    -0.027 C 
BRANCH  15  16
HETATM   16  C   UNL     1     -37.214  -7.139  -8.881  1.00  0.00     0.053 C 
BRANCH  16  17
HETATM   17  C   UNL     1     -36.114  -7.329  -7.867  1.00  0.00    -0.027 C 
HETATM   18  C   UNL     1     -34.883  -7.778  -8.172  1.00  0.00    -0.030 C 
BRANCH  18  19
HETATM   19  C   UNL     1     -34.427  -8.164  -9.556  1.00  0.00     0.027 C 
BRANCH  19  20
HETATM   20  C   UNL     1     -33.869  -9.591  -9.534  1.00  0.00     0.004 C 
BRANCH  20  21
HETATM   21  C   UNL     1     -34.557 -10.472 -10.582  1.00  0.00    -0.000 C 
BRANCH  21  22
HETATM   22  C   UNL     1     -36.078 -10.463 -10.391  1.00  0.00    -0.005 C 
HETATM   23  C   UNL     1     -36.800 -10.786 -11.696  1.00  0.00     0.005 C 
ENDBRANCH  21  22
ENDBRANCH  20  21
ENDBRANCH  19  20
ENDBRANCH  18  19
ENDBRANCH  16  17
ENDBRANCH  15  16
ENDBRANCH  13  14
ENDBRANCH  12  13
ENDBRANCH  10  11
ENDBRANCH   9  10
ENDBRANCH   7   8
ENDBRANCH   6   7
ENDBRANCH   5   6
ENDBRANCH   3   5
ENDBRANCH   1   3
TORSDOF 15
ENDMDL
MODEL 16
REMARK VINA RESULT:      -4.6     32.671     34.919
REMARK  15 active torsions:
REMARK  status: ('A' for Active; 'I' for Inactive)
REMARK    1  A    between atoms: O_1  and  C_22 
REMARK    2  A    between atoms: C_3  and  C_4 
REMARK    3  A    between atoms: C_3  and  C_5 
REMARK    4  A    between atoms: C_4  and  C_6 
REMARK    5  A    between atoms: C_5  and  C_7 
REMARK    6  A    between atoms: C_9  and  C_10 
REMARK    7  A    between atoms: C_9  and  C_13 
REMARK    8  A    between atoms: C_10  and  C_14 
REMARK    9  A    between atoms: C_11  and  C_12 
REMARK   10  A    between atoms: C_12  and  C_16 
REMARK   11  A    between atoms: C_13  and  C_22 
REMARK   12  A    between atoms: C_15  and  C_17 
REMARK   13  A    between atoms: C_15  and  C_20 
REMARK   14  A    between atoms: C_18  and  C_19 
REMARK   15  A    between atoms: C_18  and  C_21 
ROOT
HETATM    1  O   UNL     1     -34.552  -9.522  -7.554  1.00  0.00    -0.776 OA
HETATM    2  H   UNL     1     -35.299  -9.124  -8.022  1.00  0.00     0.167 HD
ENDROOT
BRANCH   1   3
HETATM    3  C   UNL     1     -34.563  -9.674  -6.213  1.00  0.00     0.139 C 
HETATM    4  O   UNL     1     -34.457 -10.788  -5.722  1.00  0.00    -0.650 OA
BRANCH   3   5
HETATM    5  C   UNL     1     -34.718  -8.469  -5.325  1.00  0.00     0.110 C 
BRANCH   5   6
HETATM    6  C   UNL     1     -36.045  -7.736  -5.563  1.00  0.00     0.014 C 
BRANCH   6   7
HETATM    7  C   UNL     1     -35.846  -6.309  -6.090  1.00  0.00     0.027 C 
BRANCH   7   8
HETATM    8  C   UNL     1     -37.139  -5.798  -6.676  1.00  0.00    -0.030 C 
HETATM    9  C   UNL     1     -37.534  -5.969  -7.952  1.00  0.00    -0.027 C 
BRANCH   9  10
HETATM   10  C   UNL     1     -36.767  -6.720  -9.011  1.00  0.00     0.053 C 
BRANCH  10  11
HETATM   11  C   UNL     1     -36.785  -5.979 -10.330  1.00  0.00    -0.027 C 
HETATM   12  C   UNL     1     -35.976  -6.173 -11.391  1.00  0.00    -0.027 C 
BRANCH  12  13
HETATM   13  C   UNL     1     -34.873  -7.193 -11.517  1.00  0.00     0.053 C 
BRANCH  13  14
HETATM   14  C   UNL     1     -35.374  -8.406 -12.265  1.00  0.00    -0.027 C 
HETATM   15  C   UNL     1     -35.060  -8.712 -13.541  1.00  0.00    -0.027 C 
BRANCH  15  16
HETATM   16  C   UNL     1     -34.172  -7.877 -14.425  1.00  0.00     0.053 C 
BRANCH  16  17
HETATM   17  C   UNL     1     -34.659  -7.874 -15.853  1.00  0.00    -0.027 C 
HETATM   18  C   UNL     1     -35.564  -7.004 -16.334  1.00  0.00    -0.030 C 
BRANCH  18  19
HETATM   19  C   UNL     1     -36.230  -5.920 -15.524  1.00  0.00     0.027 C 
BRANCH  19  20
HETATM   20  C   UNL     1     -37.744  -6.157 -15.495  1.00  0.00     0.004 C 
BRANCH  20  21
HETATM   21  C   UNL     1     -38.244  -6.373 -14.062  1.00  0.00    -0.000 C 
BRANCH  21  22
HETATM   22  C   UNL     1     -38.773  -7.800 -13.878  1.00  0.00    -0.005 C 
HETATM   23  C   UNL     1     -39.088  -8.086 -12.413  1.00  0.00     0.005 C 
ENDBRANCH  21  22
ENDBRANCH  20  21
ENDBRANCH  19  20
ENDBRANCH  18  19
ENDBRANCH  16  17
ENDBRANCH  15  16
ENDBRANCH  13  14
ENDBRANCH  12  13
ENDBRANCH  10  11
ENDBRANCH   9  10
ENDBRANCH   7   8
ENDBRANCH   6   7
ENDBRANCH   5   6
ENDBRANCH   3   5
ENDBRANCH   1   3
TORSDOF 15
ENDMDL
MODEL 17
REMARK VINA RESULT:      -4.6     32.475     34.649
REMARK  15 active torsions:
REMARK  status: ('A' for Active; 'I' for Inactive)
REMARK    1  A    between atoms: O_1  and  C_22 
REMARK    2  A    between atoms: C_3  and  C_4 
REMARK    3  A    between atoms: C_3  and  C_5 
REMARK    4  A    between atoms: C_4  and  C_6 
REMARK    5  A    between atoms: C_5  and  C_7 
REMARK    6  A    between atoms: C_9  and  C_10 
REMARK    7  A    between atoms: C_9  and  C_13 
REMARK    8  A    between atoms: C_10  and  C_14 
REMARK    9  A    between atoms: C_11  and  C_12 
REMARK   10  A    between atoms: C_12  and  C_16 
REMARK   11  A    between atoms: C_13  and  C_22 
REMARK   12  A    between atoms: C_15  and  C_17 
REMARK   13  A    between atoms: C_15  and  C_20 
REMARK   14  A    between atoms: C_18  and  C_19 
REMARK   15  A    between atoms: C_18  and  C_21 
ROOT
HETATM    1  O   UNL     1     -34.477 -12.755  -7.113  1.00  0.00    -0.776 OA
HETATM    2  H   UNL     1     -33.822 -13.412  -6.840  1.00  0.00     0.167 HD
ENDROOT
BRANCH   1   3
HETATM    3  C   UNL     1     -34.112 -11.618  -7.744  1.00  0.00     0.139 C 
HETATM    4  O   UNL     1     -33.246 -11.647  -8.606  1.00  0.00    -0.650 OA
BRANCH   3   5
HETATM    5  C   UNL     1     -34.765 -10.315  -7.374  1.00  0.00     0.110 C 
BRANCH   5   6
HETATM    6  C   UNL     1     -34.629  -9.259  -8.480  1.00  0.00     0.014 C 
BRANCH   6   7
HETATM    7  C   UNL     1     -35.280  -7.921  -8.104  1.00  0.00     0.027 C 
BRANCH   7   8
HETATM    8  C   UNL     1     -34.583  -7.338  -6.900  1.00  0.00    -0.030 C 
HETATM    9  C   UNL     1     -35.194  -6.706  -5.880  1.00  0.00    -0.027 C 
BRANCH   9  10
HETATM   10  C   UNL     1     -36.680  -6.493  -5.748  1.00  0.00     0.053 C 
BRANCH  10  11
HETATM   11  C   UNL     1     -37.068  -5.082  -6.134  1.00  0.00    -0.027 C 
HETATM   12  C   UNL     1     -37.570  -4.663  -7.313  1.00  0.00    -0.027 C 
BRANCH  12  13
HETATM   13  C   UNL     1     -37.882  -5.511  -8.520  1.00  0.00     0.053 C 
BRANCH  13  14
HETATM   14  C   UNL     1     -37.546  -4.755  -9.784  1.00  0.00    -0.027 C 
HETATM   15  C   UNL     1     -37.091  -5.316 -10.923  1.00  0.00    -0.027 C 
BRANCH  15  16
HETATM   16  C   UNL     1     -36.830  -6.788 -11.104  1.00  0.00     0.053 C 
BRANCH  16  17
HETATM   17  C   UNL     1     -35.515  -7.035 -11.800  1.00  0.00    -0.027 C 
HETATM   18  C   UNL     1     -35.406  -7.419 -13.084  1.00  0.00    -0.030 C 
BRANCH  18  19
HETATM   19  C   UNL     1     -36.570  -7.670 -14.008  1.00  0.00     0.027 C 
BRANCH  19  20
HETATM   20  C   UNL     1     -36.073  -7.735 -15.456  1.00  0.00     0.004 C 
BRANCH  20  21
HETATM   21  C   UNL     1     -35.709  -6.341 -15.980  1.00  0.00    -0.000 C 
BRANCH  21  22
HETATM   22  C   UNL     1     -36.971  -5.531 -16.301  1.00  0.00    -0.005 C 
HETATM   23  C   UNL     1     -37.738  -6.145 -17.468  1.00  0.00     0.005 C 
ENDBRANCH  21  22
ENDBRANCH  20  21
ENDBRANCH  19  20
ENDBRANCH  18  19
ENDBRANCH  16  17
ENDBRANCH  15  16
ENDBRANCH  13  14
ENDBRANCH  12  13
ENDBRANCH  10  11
ENDBRANCH   9  10
ENDBRANCH   7   8
ENDBRANCH   6   7
ENDBRANCH   5   6
ENDBRANCH   3   5
ENDBRANCH   1   3
TORSDOF 15
ENDMDL
MODEL 18
REMARK VINA RESULT:      -4.6     33.776     36.157
REMARK  15 active torsions:
REMARK  status: ('A' for Active; 'I' for Inactive)
REMARK    1  A    between atoms: O_1  and  C_22 
REMARK    2  A    between atoms: C_3  and  C_4 
REMARK    3  A    between atoms: C_3  and  C_5 
REMARK    4  A    between atoms: C_4  and  C_6 
REMARK    5  A    between atoms: C_5  and  C_7 
REMARK    6  A    between atoms: C_9  and  C_10 
REMARK    7  A    between atoms: C_9  and  C_13 
REMARK    8  A    between atoms: C_10  and  C_14 
REMARK    9  A    between atoms: C_11  and  C_12 
REMARK   10  A    between atoms: C_12  and  C_16 
REMARK   11  A    between atoms: C_13  and  C_22 
REMARK   12  A    between atoms: C_15  and  C_17 
REMARK   13  A    between atoms: C_15  and  C_20 
REMARK   14  A    between atoms: C_18  and  C_19 
REMARK   15  A    between atoms: C_18  and  C_21 
ROOT
HETATM    1  O   UNL     1     -35.735  -9.062  -5.876  1.00  0.00    -0.776 OA
HETATM    2  H   UNL     1     -36.565  -9.352  -6.281  1.00  0.00     0.167 HD
ENDROOT
BRANCH   1   3
HETATM    3  C   UNL     1     -35.054  -7.999  -6.353  1.00  0.00     0.139 C 
HETATM    4  O   UNL     1     -33.963  -7.709  -5.883  1.00  0.00    -0.650 OA
BRANCH   3   5
HETATM    5  C   UNL     1     -35.646  -7.164  -7.456  1.00  0.00     0.110 C 
BRANCH   5   6
HETATM    6  C   UNL     1     -37.151  -6.926  -7.263  1.00  0.00     0.014 C 
BRANCH   6   7
HETATM    7  C   UNL     1     -37.681  -5.771  -8.123  1.00  0.00     0.027 C 
BRANCH   7   8
HETATM    8  C   UNL     1     -38.368  -6.323  -9.347  1.00  0.00    -0.030 C 
HETATM    9  C   UNL     1     -37.905  -6.228 -10.607  1.00  0.00    -0.027 C 
BRANCH   9  10
HETATM   10  C   UNL     1     -36.608  -5.575 -11.015  1.00  0.00     0.053 C 
BRANCH  10  11
HETATM   11  C   UNL     1     -35.464  -6.565 -10.989  1.00  0.00    -0.027 C 
HETATM   12  C   UNL     1     -35.105  -7.430 -11.960  1.00  0.00    -0.027 C 
BRANCH  12  13
HETATM   13  C   UNL     1     -35.752  -7.596 -13.311  1.00  0.00     0.053 C 
BRANCH  13  14
HETATM   14  C   UNL     1     -36.671  -8.795 -13.300  1.00  0.00    -0.027 C 
HETATM   15  C   UNL     1     -37.985  -8.766 -13.604  1.00  0.00    -0.027 C 
BRANCH  15  16
HETATM   16  C   UNL     1     -38.745  -7.523 -13.988  1.00  0.00     0.053 C 
BRANCH  16  17
HETATM   17  C   UNL     1     -39.255  -7.602 -15.405  1.00  0.00    -0.027 C 
HETATM   18  C   UNL     1     -38.614  -7.077 -16.463  1.00  0.00    -0.030 C 
BRANCH  18  19
HETATM   19  C   UNL     1     -37.308  -6.327 -16.392  1.00  0.00     0.027 C 
BRANCH  19  20
HETATM   20  C   UNL     1     -37.239  -5.305 -17.531  1.00  0.00     0.004 C 
BRANCH  20  21
HETATM   21  C   UNL     1     -37.704  -5.918 -18.856  1.00  0.00    -0.000 C 
BRANCH  21  22
HETATM   22  C   UNL     1     -38.213  -4.833 -19.812  1.00  0.00    -0.005 C 
HETATM   23  C   UNL     1     -37.147  -4.458 -20.837  1.00  0.00     0.005 C 
ENDBRANCH  21  22
ENDBRANCH  20  21
ENDBRANCH  19  20
ENDBRANCH  18  19
ENDBRANCH  16  17
ENDBRANCH  15  16
ENDBRANCH  13  14
ENDBRANCH  12  13
ENDBRANCH  10  11
ENDBRANCH   9  10
ENDBRANCH   7   8
ENDBRANCH   6   7
ENDBRANCH   5   6
ENDBRANCH   3   5
ENDBRANCH   1   3
TORSDOF 15
ENDMDL
MODEL 19
REMARK VINA RESULT:      -4.5     24.518     27.221
REMARK  15 active torsions:
REMARK  status: ('A' for Active; 'I' for Inactive)
REMARK    1  A    between atoms: O_1  and  C_22 
REMARK    2  A    between atoms: C_3  and  C_4 
REMARK    3  A    between atoms: C_3  and  C_5 
REMARK    4  A    between atoms: C_4  and  C_6 
REMARK    5  A    between atoms: C_5  and  C_7 
REMARK    6  A    between atoms: C_9  and  C_10 
REMARK    7  A    between atoms: C_9  and  C_13 
REMARK    8  A    between atoms: C_10  and  C_14 
REMARK    9  A    between atoms: C_11  and  C_12 
REMARK   10  A    between atoms: C_12  and  C_16 
REMARK   11  A    between atoms: C_13  and  C_22 
REMARK   12  A    between atoms: C_15  and  C_17 
REMARK   13  A    between atoms: C_15  and  C_20 
REMARK   14  A    between atoms: C_18  and  C_19 
REMARK   15  A    between atoms: C_18  and  C_21 
ROOT
HETATM    1  O   UNL     1      -3.762  15.071 -19.951  1.00  0.00    -0.776 OA
HETATM    2  H   UNL     1      -3.834  14.890 -19.003  1.00  0.00     0.167 HD
ENDROOT
BRANCH   1   3
HETATM    3  C   UNL     1      -4.146  16.256 -20.471  1.00  0.00     0.139 C 
HETATM    4  O   UNL     1      -4.147  16.422 -21.682  1.00  0.00    -0.650 OA
BRANCH   3   5
HETATM    5  C   UNL     1      -4.561  17.375 -19.556  1.00  0.00     0.110 C 
BRANCH   5   6
HETATM    6  C   UNL     1      -5.479  18.389 -20.253  1.00  0.00     0.014 C 
BRANCH   6   7
HETATM    7  C   UNL     1      -6.957  18.194 -19.892  1.00  0.00     0.027 C 
BRANCH   7   8
HETATM    8  C   UNL     1      -7.661  17.463 -21.008  1.00  0.00    -0.030 C 
HETATM    9  C   UNL     1      -8.326  16.300 -20.877  1.00  0.00    -0.027 C 
BRANCH   9  10
HETATM   10  C   UNL     1      -8.506  15.536 -19.590  1.00  0.00     0.053 C 
BRANCH  10  11
HETATM   11  C   UNL     1      -7.343  14.602 -19.340  1.00  0.00    -0.027 C 
HETATM   12  C   UNL     1      -6.571  14.531 -18.236  1.00  0.00    -0.027 C 
BRANCH  12  13
HETATM   13  C   UNL     1      -6.703  15.356 -16.981  1.00  0.00     0.053 C 
BRANCH  13  14
HETATM   14  C   UNL     1      -5.346  15.551 -16.346  1.00  0.00    -0.027 C 
HETATM   15  C   UNL     1      -4.977  15.059 -15.145  1.00  0.00    -0.027 C 
BRANCH  15  16
HETATM   16  C   UNL     1      -5.871  14.251 -14.242  1.00  0.00     0.053 C 
BRANCH  16  17
HETATM   17  C   UNL     1      -6.121  14.959 -12.934  1.00  0.00    -0.027 C 
HETATM   18  C   UNL     1      -7.181  15.753 -12.702  1.00  0.00    -0.030 C 
BRANCH  18  19
HETATM   19  C   UNL     1      -8.262  16.060 -13.707  1.00  0.00     0.027 C 
BRANCH  19  20
HETATM   20  C   UNL     1      -8.930  17.393 -13.354  1.00  0.00     0.004 C 
BRANCH  20  21
HETATM   21  C   UNL     1      -8.293  18.554 -14.125  1.00  0.00    -0.000 C 
BRANCH  21  22
HETATM   22  C   UNL     1      -8.126  18.198 -15.608  1.00  0.00    -0.005 C 
HETATM   23  C   UNL     1      -7.051  19.060 -16.263  1.00  0.00     0.005 C 
ENDBRANCH  21  22
ENDBRANCH  20  21
ENDBRANCH  19  20
ENDBRANCH  18  19
ENDBRANCH  16  17
ENDBRANCH  15  16
ENDBRANCH  13  14
ENDBRANCH  12  13
ENDBRANCH  10  11
ENDBRANCH   9  10
ENDBRANCH   7   8
ENDBRANCH   6   7
ENDBRANCH   5   6
ENDBRANCH   3   5
ENDBRANCH   1   3
TORSDOF 15
ENDMDL
MODEL 20
REMARK VINA RESULT:      -4.5     33.463     34.765
REMARK  15 active torsions:
REMARK  status: ('A' for Active; 'I' for Inactive)
REMARK    1  A    between atoms: O_1  and  C_22 
REMARK    2  A    between atoms: C_3  and  C_4 
REMARK    3  A    between atoms: C_3  and  C_5 
REMARK    4  A    between atoms: C_4  and  C_6 
REMARK    5  A    between atoms: C_5  and  C_7 
REMARK    6  A    between atoms: C_9  and  C_10 
REMARK    7  A    between atoms: C_9  and  C_13 
REMARK    8  A    between atoms: C_10  and  C_14 
REMARK    9  A    between atoms: C_11  and  C_12 
REMARK   10  A    between atoms: C_12  and  C_16 
REMARK   11  A    between atoms: C_13  and  C_22 
REMARK   12  A    between atoms: C_15  and  C_17 
REMARK   13  A    between atoms: C_15  and  C_20 
REMARK   14  A    between atoms: C_18  and  C_19 
REMARK   15  A    between atoms: C_18  and  C_21 
ROOT
HETATM    1  O   UNL     1     -39.377  -9.046 -15.201  1.00  0.00    -0.776 OA
HETATM    2  H   UNL     1     -38.906  -9.514 -14.497  1.00  0.00     0.167 HD
ENDROOT
BRANCH   1   3
HETATM    3  C   UNL     1     -39.061  -7.776 -15.533  1.00  0.00     0.139 C 
HETATM    4  O   UNL     1     -39.510  -6.843 -14.883  1.00  0.00    -0.650 OA
BRANCH   3   5
HETATM    5  C   UNL     1     -38.166  -7.513 -16.713  1.00  0.00     0.110 C 
BRANCH   5   6
HETATM    6  C   UNL     1     -37.585  -6.092 -16.700  1.00  0.00     0.014 C 
BRANCH   6   7
HETATM    7  C   UNL     1     -36.461  -5.922 -15.669  1.00  0.00     0.027 C 
BRANCH   7   8
HETATM    8  C   UNL     1     -35.261  -6.733 -16.089  1.00  0.00    -0.030 C 
HETATM    9  C   UNL     1     -34.789  -7.814 -15.439  1.00  0.00    -0.027 C 
BRANCH   9  10
HETATM   10  C   UNL     1     -35.389  -8.417 -14.194  1.00  0.00     0.053 C 
BRANCH  10  11
HETATM   11  C   UNL     1     -34.836  -7.764 -12.947  1.00  0.00    -0.027 C 
HETATM   12  C   UNL     1     -35.499  -6.990 -12.063  1.00  0.00    -0.027 C 
BRANCH  12  13
HETATM   13  C   UNL     1     -36.957  -6.612 -12.104  1.00  0.00     0.053 C 
BRANCH  13  14
HETATM   14  C   UNL     1     -37.163  -5.274 -11.433  1.00  0.00    -0.027 C 
HETATM   15  C   UNL     1     -37.745  -5.093 -10.230  1.00  0.00    -0.027 C 
BRANCH  15  16
HETATM   16  C   UNL     1     -38.297  -6.202  -9.373  1.00  0.00     0.053 C 
BRANCH  16  17
HETATM   17  C   UNL     1     -37.741  -6.147  -7.972  1.00  0.00    -0.027 C 
HETATM   18  C   UNL     1     -36.564  -6.687  -7.611  1.00  0.00    -0.030 C 
BRANCH  18  19
HETATM   19  C   UNL     1     -35.638  -7.431  -8.540  1.00  0.00     0.027 C 
BRANCH  19  20
HETATM   20  C   UNL     1     -35.385  -8.840  -7.995  1.00  0.00     0.004 C 
BRANCH  20  21
HETATM   21  C   UNL     1     -36.448  -9.826  -8.489  1.00  0.00    -0.000 C 
BRANCH  21  22
HETATM   22  C   UNL     1     -36.460  -9.894 -10.021  1.00  0.00    -0.005 C 
HETATM   23  C   UNL     1     -37.872  -9.710 -10.570  1.00  0.00     0.005 C 
ENDBRANCH  21  22
ENDBRANCH  20  21
ENDBRANCH  19  20
ENDBRANCH  18  19
ENDBRANCH  16  17
ENDBRANCH  15  16
ENDBRANCH  13  14
ENDBRANCH  12  13
ENDBRANCH  10  11
ENDBRANCH   9  10
ENDBRANCH   7   8
ENDBRANCH   6   7
ENDBRANCH   5   6
ENDBRANCH   3   5
ENDBRANCH   1   3
TORSDOF 15
ENDMDL
