MODEL 1
REMARK VINA RESULT:      -5.0      0.000      0.000
REMARK  15 active torsions:
REMARK  status: ('A' for Active; 'I' for Inactive)
REMARK    1  A    between atoms: O_1  and  C_23 
REMARK    2  A    between atoms: C_3  and  C_7 
REMARK    3  A    between atoms: C_3  and  C_8 
REMARK    4  A    between atoms: C_4  and  C_10 
REMARK    5  A    between atoms: C_4  and  C_11 
REMARK    6  A    between atoms: C_5  and  C_12 
REMARK    7  A    between atoms: C_5  and  C_13 
REMARK    8  A    between atoms: C_6  and  C_15 
REMARK    9  A    between atoms: C_6  and  C_16 
REMARK   10  A    between atoms: C_7  and  C_23 
REMARK   11  A    between atoms: C_9  and  C_17 
REMARK   12  A    between atoms: C_9  and  C_18 
REMARK   13  A    between atoms: C_14  and  C_19 
REMARK   14  A    between atoms: C_14  and  C_20 
REMARK   15  A    between atoms: C_21  and  C_22 
ROOT
HETATM    1  O   UNL     1     -38.647  -5.692  -5.375  1.00  0.00    -0.776 OA
HETATM    2  H   UNL     1     -38.968  -6.520  -5.759  1.00  0.00     0.167 HD
ENDROOT
BRANCH   1   3
HETATM    3  C   UNL     1     -37.771  -4.903  -6.034  1.00  0.00     0.139 C 
HETATM    4  O   UNL     1     -37.199  -3.998  -5.443  1.00  0.00    -0.650 OA
BRANCH   3   5
HETATM    5  C   UNL     1     -37.500  -5.144  -7.491  1.00  0.00     0.113 C 
BRANCH   5   6
HETATM    6  C   UNL     1     -37.023  -6.580  -7.729  1.00  0.00     0.037 C 
BRANCH   6   7
HETATM    7  C   UNL     1     -35.714  -6.831  -7.018  1.00  0.00    -0.030 C 
HETATM    8  C   UNL     1     -34.735  -7.681  -7.394  1.00  0.00    -0.027 C 
BRANCH   8   9
HETATM    9  C   UNL     1     -34.714  -8.581  -8.611  1.00  0.00     0.053 C 
BRANCH   9  10
HETATM   10  C   UNL     1     -33.988  -7.920  -9.755  1.00  0.00    -0.027 C 
HETATM   11  C   UNL     1     -34.558  -7.451 -10.880  1.00  0.00    -0.027 C 
BRANCH  11  12
HETATM   12  C   UNL     1     -36.035  -7.449 -11.177  1.00  0.00     0.053 C 
BRANCH  12  13
HETATM   13  C   UNL     1     -36.555  -6.040 -11.310  1.00  0.00    -0.027 C 
HETATM   14  C   UNL     1     -37.347  -5.565 -12.291  1.00  0.00    -0.027 C 
BRANCH  14  15
HETATM   15  C   UNL     1     -37.836  -6.337 -13.487  1.00  0.00     0.053 C 
BRANCH  15  16
HETATM   16  C   UNL     1     -37.851  -5.411 -14.683  1.00  0.00    -0.027 C 
HETATM   17  C   UNL     1     -37.330  -5.629 -15.907  1.00  0.00    -0.027 C 
BRANCH  17  18
HETATM   18  C   UNL     1     -36.618  -6.868 -16.385  1.00  0.00     0.053 C 
BRANCH  18  19
HETATM   19  C   UNL     1     -35.147  -6.801 -16.048  1.00  0.00    -0.027 C 
HETATM   20  C   UNL     1     -34.460  -7.598 -15.204  1.00  0.00    -0.027 C 
BRANCH  20  21
HETATM   21  C   UNL     1     -34.992  -8.783 -14.437  1.00  0.00     0.053 C 
BRANCH  21  22
HETATM   22  C   UNL     1     -33.957  -9.880 -14.356  1.00  0.00    -0.027 C 
HETATM   23  C   UNL     1     -33.947 -10.931 -13.512  1.00  0.00    -0.031 C 
BRANCH  23  24
HETATM   24  C   UNL     1     -34.965 -11.233 -12.444  1.00  0.00     0.022 C 
HETATM   25  C   UNL     1     -34.347 -11.307 -11.054  1.00  0.00     0.009 C 
ENDBRANCH  23  24
ENDBRANCH  21  22
ENDBRANCH  20  21
ENDBRANCH  18  19
ENDBRANCH  17  18
ENDBRANCH  15  16
ENDBRANCH  14  15
ENDBRANCH  12  13
ENDBRANCH  11  12
ENDBRANCH   9  10
ENDBRANCH   8   9
ENDBRANCH   6   7
ENDBRANCH   5   6
ENDBRANCH   3   5
ENDBRANCH   1   3
TORSDOF 15
ENDMDL
MODEL 2
REMARK VINA RESULT:      -4.7      5.124      8.191
REMARK  15 active torsions:
REMARK  status: ('A' for Active; 'I' for Inactive)
REMARK    1  A    between atoms: O_1  and  C_23 
REMARK    2  A    between atoms: C_3  and  C_7 
REMARK    3  A    between atoms: C_3  and  C_8 
REMARK    4  A    between atoms: C_4  and  C_10 
REMARK    5  A    between atoms: C_4  and  C_11 
REMARK    6  A    between atoms: C_5  and  C_12 
REMARK    7  A    between atoms: C_5  and  C_13 
REMARK    8  A    between atoms: C_6  and  C_15 
REMARK    9  A    between atoms: C_6  and  C_16 
REMARK   10  A    between atoms: C_7  and  C_23 
REMARK   11  A    between atoms: C_9  and  C_17 
REMARK   12  A    between atoms: C_9  and  C_18 
REMARK   13  A    between atoms: C_14  and  C_19 
REMARK   14  A    between atoms: C_14  and  C_20 
REMARK   15  A    between atoms: C_21  and  C_22 
ROOT
HETATM    1  O   UNL     1     -35.051  -9.201 -13.961  1.00  0.00    -0.776 OA
HETATM    2  H   UNL     1     -34.652 -10.010 -13.611  1.00  0.00     0.167 HD
ENDROOT
BRANCH   1   3
HETATM    3  C   UNL     1     -34.293  -8.210 -14.478  1.00  0.00     0.139 C 
HETATM    4  O   UNL     1     -33.087  -8.195 -14.281  1.00  0.00    -0.650 OA
BRANCH   3   5
HETATM    5  C   UNL     1     -34.938  -7.130 -15.299  1.00  0.00     0.113 C 
BRANCH   5   6
HETATM    6  C   UNL     1     -34.548  -7.258 -16.776  1.00  0.00     0.037 C 
BRANCH   6   7
HETATM    7  C   UNL     1     -35.207  -8.466 -17.397  1.00  0.00    -0.030 C 
HETATM    8  C   UNL     1     -35.049  -8.917 -18.660  1.00  0.00    -0.027 C 
BRANCH   8   9
HETATM    9  C   UNL     1     -34.180  -8.325 -19.748  1.00  0.00     0.053 C 
BRANCH   9  10
HETATM   10  C   UNL     1     -34.922  -8.273 -21.060  1.00  0.00    -0.027 C 
HETATM   11  C   UNL     1     -35.757  -7.294 -21.452  1.00  0.00    -0.027 C 
BRANCH  11  12
HETATM   12  C   UNL     1     -36.059  -6.039 -20.674  1.00  0.00     0.053 C 
BRANCH  12  13
HETATM   13  C   UNL     1     -37.544  -5.782 -20.622  1.00  0.00    -0.027 C 
HETATM   14  C   UNL     1     -38.324  -5.799 -19.525  1.00  0.00    -0.027 C 
BRANCH  14  15
HETATM   15  C   UNL     1     -37.878  -6.127 -18.125  1.00  0.00     0.053 C 
BRANCH  15  16
HETATM   16  C   UNL     1     -37.276  -4.884 -17.508  1.00  0.00    -0.027 C 
HETATM   17  C   UNL     1     -37.585  -4.312 -16.327  1.00  0.00    -0.027 C 
BRANCH  17  18
HETATM   18  C   UNL     1     -38.600  -4.791 -15.322  1.00  0.00     0.053 C 
BRANCH  18  19
HETATM   19  C   UNL     1     -37.971  -5.766 -14.353  1.00  0.00    -0.027 C 
HETATM   20  C   UNL     1     -38.259  -7.075 -14.202  1.00  0.00    -0.027 C 
BRANCH  20  21
HETATM   21  C   UNL     1     -39.242  -7.889 -15.007  1.00  0.00     0.053 C 
BRANCH  21  22
HETATM   22  C   UNL     1     -38.529  -8.951 -15.811  1.00  0.00    -0.027 C 
HETATM   23  C   UNL     1     -38.869  -9.416 -17.029  1.00  0.00    -0.031 C 
BRANCH  23  24
HETATM   24  C   UNL     1     -40.055  -8.990 -17.854  1.00  0.00     0.022 C 
HETATM   25  C   UNL     1     -41.187 -10.009 -17.818  1.00  0.00     0.009 C 
ENDBRANCH  23  24
ENDBRANCH  21  22
ENDBRANCH  20  21
ENDBRANCH  18  19
ENDBRANCH  17  18
ENDBRANCH  15  16
ENDBRANCH  14  15
ENDBRANCH  12  13
ENDBRANCH  11  12
ENDBRANCH   9  10
ENDBRANCH   8   9
ENDBRANCH   6   7
ENDBRANCH   5   6
ENDBRANCH   3   5
ENDBRANCH   1   3
TORSDOF 15
ENDMDL
MODEL 3
REMARK VINA RESULT:      -4.6      3.479      7.881
REMARK  15 active torsions:
REMARK  status: ('A' for Active; 'I' for Inactive)
REMARK    1  A    between atoms: O_1  and  C_23 
REMARK    2  A    between atoms: C_3  and  C_7 
REMARK    3  A    between atoms: C_3  and  C_8 
REMARK    4  A    between atoms: C_4  and  C_10 
REMARK    5  A    between atoms: C_4  and  C_11 
REMARK    6  A    between atoms: C_5  and  C_12 
REMARK    7  A    between atoms: C_5  and  C_13 
REMARK    8  A    between atoms: C_6  and  C_15 
REMARK    9  A    between atoms: C_6  and  C_16 
REMARK   10  A    between atoms: C_7  and  C_23 
REMARK   11  A    between atoms: C_9  and  C_17 
REMARK   12  A    between atoms: C_9  and  C_18 
REMARK   13  A    between atoms: C_14  and  C_19 
REMARK   14  A    between atoms: C_14  and  C_20 
REMARK   15  A    between atoms: C_21  and  C_22 
ROOT
HETATM    1  O   UNL     1     -37.200  -3.539 -15.515  1.00  0.00    -0.776 OA
HETATM    2  H   UNL     1     -36.242  -3.505 -15.383  1.00  0.00     0.167 HD
ENDROOT
BRANCH   1   3
HETATM    3  C   UNL     1     -37.783  -4.555 -16.185  1.00  0.00     0.139 C 
HETATM    4  O   UNL     1     -37.558  -4.712 -17.377  1.00  0.00    -0.650 OA
BRANCH   3   5
HETATM    5  C   UNL     1     -38.706  -5.494 -15.461  1.00  0.00     0.113 C 
BRANCH   5   6
HETATM    6  C   UNL     1     -38.126  -6.913 -15.428  1.00  0.00     0.037 C 
BRANCH   6   7
HETATM    7  C   UNL     1     -38.745  -7.766 -16.509  1.00  0.00    -0.030 C 
HETATM    8  C   UNL     1     -38.166  -8.796 -17.163  1.00  0.00    -0.027 C 
BRANCH   8   9
HETATM    9  C   UNL     1     -36.766  -9.339 -16.970  1.00  0.00     0.053 C 
BRANCH   9  10
HETATM   10  C   UNL     1     -35.806  -8.706 -17.945  1.00  0.00    -0.027 C 
HETATM   11  C   UNL     1     -35.012  -7.649 -17.693  1.00  0.00    -0.027 C 
BRANCH  11  12
HETATM   12  C   UNL     1     -34.895  -6.940 -16.369  1.00  0.00     0.053 C 
BRANCH  12  13
HETATM   13  C   UNL     1     -33.922  -7.651 -15.462  1.00  0.00    -0.027 C 
HETATM   14  C   UNL     1     -34.192  -8.190 -14.259  1.00  0.00    -0.027 C 
BRANCH  14  15
HETATM   15  C   UNL     1     -35.518  -8.150 -13.546  1.00  0.00     0.053 C 
BRANCH  15  16
HETATM   16  C   UNL     1     -35.473  -7.051 -12.508  1.00  0.00    -0.027 C 
HETATM   17  C   UNL     1     -35.103  -7.146 -11.215  1.00  0.00    -0.027 C 
BRANCH  17  18
HETATM   18  C   UNL     1     -34.623  -8.379 -10.496  1.00  0.00     0.053 C 
BRANCH  18  19
HETATM   19  C   UNL     1     -34.145  -8.033  -9.105  1.00  0.00    -0.027 C 
HETATM   20  C   UNL     1     -34.901  -7.793  -8.013  1.00  0.00    -0.027 C 
BRANCH  20  21
HETATM   21  C   UNL     1     -36.404  -7.869  -7.913  1.00  0.00     0.053 C 
BRANCH  21  22
HETATM   22  C   UNL     1     -37.045  -6.631  -8.495  1.00  0.00    -0.027 C 
HETATM   23  C   UNL     1     -37.662  -5.639  -7.823  1.00  0.00    -0.031 C 
BRANCH  23  24
HETATM   24  C   UNL     1     -37.864  -5.557  -6.332  1.00  0.00     0.022 C 
HETATM   25  C   UNL     1     -37.223  -4.316  -5.725  1.00  0.00     0.009 C 
ENDBRANCH  23  24
ENDBRANCH  21  22
ENDBRANCH  20  21
ENDBRANCH  18  19
ENDBRANCH  17  18
ENDBRANCH  15  16
ENDBRANCH  14  15
ENDBRANCH  12  13
ENDBRANCH  11  12
ENDBRANCH   9  10
ENDBRANCH   8   9
ENDBRANCH   6   7
ENDBRANCH   5   6
ENDBRANCH   3   5
ENDBRANCH   1   3
TORSDOF 15
ENDMDL
MODEL 4
REMARK VINA RESULT:      -4.6      2.289      5.319
REMARK  15 active torsions:
REMARK  status: ('A' for Active; 'I' for Inactive)
REMARK    1  A    between atoms: O_1  and  C_23 
REMARK    2  A    between atoms: C_3  and  C_7 
REMARK    3  A    between atoms: C_3  and  C_8 
REMARK    4  A    between atoms: C_4  and  C_10 
REMARK    5  A    between atoms: C_4  and  C_11 
REMARK    6  A    between atoms: C_5  and  C_12 
REMARK    7  A    between atoms: C_5  and  C_13 
REMARK    8  A    between atoms: C_6  and  C_15 
REMARK    9  A    between atoms: C_6  and  C_16 
REMARK   10  A    between atoms: C_7  and  C_23 
REMARK   11  A    between atoms: C_9  and  C_17 
REMARK   12  A    between atoms: C_9  and  C_18 
REMARK   13  A    between atoms: C_14  and  C_19 
REMARK   14  A    between atoms: C_14  and  C_20 
REMARK   15  A    between atoms: C_21  and  C_22 
ROOT
HETATM    1  O   UNL     1     -37.376  -3.590 -10.814  1.00  0.00    -0.776 OA
HETATM    2  H   UNL     1     -37.186  -2.690 -10.517  1.00  0.00     0.167 HD
ENDROOT
BRANCH   1   3
HETATM    3  C   UNL     1     -37.550  -4.599  -9.934  1.00  0.00     0.139 C 
HETATM    4  O   UNL     1     -37.671  -4.358  -8.741  1.00  0.00    -0.650 OA
BRANCH   3   5
HETATM    5  C   UNL     1     -37.596  -6.018 -10.425  1.00  0.00     0.113 C 
BRANCH   5   6
HETATM    6  C   UNL     1     -38.908  -6.696 -10.015  1.00  0.00     0.037 C 
BRANCH   6   7
HETATM    7  C   UNL     1     -38.682  -8.160  -9.721  1.00  0.00    -0.030 C 
HETATM    8  C   UNL     1     -38.905  -8.797  -8.552  1.00  0.00    -0.027 C 
BRANCH   8   9
HETATM    9  C   UNL     1     -39.432  -8.203  -7.264  1.00  0.00     0.053 C 
BRANCH   9  10
HETATM   10  C   UNL     1     -38.586  -8.628  -6.091  1.00  0.00    -0.027 C 
HETATM   11  C   UNL     1     -37.467  -8.014  -5.665  1.00  0.00    -0.027 C 
BRANCH  11  12
HETATM   12  C   UNL     1     -36.887  -6.752  -6.249  1.00  0.00     0.053 C 
BRANCH  12  13
HETATM   13  C   UNL     1     -35.383  -6.835  -6.322  1.00  0.00    -0.027 C 
HETATM   14  C   UNL     1     -34.655  -7.356  -7.328  1.00  0.00    -0.027 C 
BRANCH  14  15
HETATM   15  C   UNL     1     -35.199  -8.010  -8.570  1.00  0.00     0.053 C 
BRANCH  15  16
HETATM   16  C   UNL     1     -35.310  -9.497  -8.321  1.00  0.00    -0.027 C 
HETATM   17  C   UNL     1     -34.978 -10.504  -9.155  1.00  0.00    -0.027 C 
BRANCH  17  18
HETATM   18  C   UNL     1     -34.394 -10.385 -10.538  1.00  0.00     0.053 C 
BRANCH  18  19
HETATM   19  C   UNL     1     -35.488 -10.381 -11.580  1.00  0.00    -0.027 C 
HETATM   20  C   UNL     1     -35.790  -9.396 -12.450  1.00  0.00    -0.027 C 
BRANCH  20  21
HETATM   21  C   UNL     1     -35.068  -8.083 -12.625  1.00  0.00     0.053 C 
BRANCH  21  22
HETATM   22  C   UNL     1     -35.980  -7.044 -13.235  1.00  0.00    -0.027 C 
HETATM   23  C   UNL     1     -36.285  -6.892 -14.538  1.00  0.00    -0.031 C 
BRANCH  23  24
HETATM   24  C   UNL     1     -35.765  -7.720 -15.684  1.00  0.00     0.022 C 
HETATM   25  C   UNL     1     -34.507  -7.128 -16.307  1.00  0.00     0.009 C 
ENDBRANCH  23  24
ENDBRANCH  21  22
ENDBRANCH  20  21
ENDBRANCH  18  19
ENDBRANCH  17  18
ENDBRANCH  15  16
ENDBRANCH  14  15
ENDBRANCH  12  13
ENDBRANCH  11  12
ENDBRANCH   9  10
ENDBRANCH   8   9
ENDBRANCH   6   7
ENDBRANCH   5   6
ENDBRANCH   3   5
ENDBRANCH   1   3
TORSDOF 15
ENDMDL
MODEL 5
REMARK VINA RESULT:      -4.4     37.147     38.658
REMARK  15 active torsions:
REMARK  status: ('A' for Active; 'I' for Inactive)
REMARK    1  A    between atoms: O_1  and  C_23 
REMARK    2  A    between atoms: C_3  and  C_7 
REMARK    3  A    between atoms: C_3  and  C_8 
REMARK    4  A    between atoms: C_4  and  C_10 
REMARK    5  A    between atoms: C_4  and  C_11 
REMARK    6  A    between atoms: C_5  and  C_12 
REMARK    7  A    between atoms: C_5  and  C_13 
REMARK    8  A    between atoms: C_6  and  C_15 
REMARK    9  A    between atoms: C_6  and  C_16 
REMARK   10  A    between atoms: C_7  and  C_23 
REMARK   11  A    between atoms: C_9  and  C_17 
REMARK   12  A    between atoms: C_9  and  C_18 
REMARK   13  A    between atoms: C_14  and  C_19 
REMARK   14  A    between atoms: C_14  and  C_20 
REMARK   15  A    between atoms: C_21  and  C_22 
ROOT
HETATM    1  O   UNL     1      -5.598  13.674 -19.732  1.00  0.00    -0.776 OA
HETATM    2  H   UNL     1      -5.541  12.940 -19.105  1.00  0.00     0.167 HD
ENDROOT
BRANCH   1   3
HETATM    3  C   UNL     1      -4.987  14.854 -19.493  1.00  0.00     0.139 C 
HETATM    4  O   UNL     1      -3.898  15.093 -19.995  1.00  0.00    -0.650 OA
BRANCH   3   5
HETATM    5  C   UNL     1      -5.652  15.872 -18.611  1.00  0.00     0.113 C 
BRANCH   5   6
HETATM    6  C   UNL     1      -6.990  15.346 -18.079  1.00  0.00     0.037 C 
BRANCH   6   7
HETATM    7  C   UNL     1      -8.110  16.300 -18.417  1.00  0.00    -0.030 C 
HETATM    8  C   UNL     1      -8.746  17.138 -17.571  1.00  0.00    -0.027 C 
BRANCH   8   9
HETATM    9  C   UNL     1      -8.491  17.321 -16.090  1.00  0.00     0.053 C 
BRANCH   9  10
HETATM   10  C   UNL     1      -9.321  16.358 -15.279  1.00  0.00    -0.027 C 
HETATM   11  C   UNL     1      -9.442  16.361 -13.940  1.00  0.00    -0.027 C 
BRANCH  11  12
HETATM   12  C   UNL     1      -8.816  17.366 -13.007  1.00  0.00     0.053 C 
BRANCH  12  13
HETATM   13  C   UNL     1      -8.776  16.837 -11.595  1.00  0.00    -0.027 C 
HETATM   14  C   UNL     1      -7.731  16.241 -10.991  1.00  0.00    -0.027 C 
BRANCH  14  15
HETATM   15  C   UNL     1      -6.398  15.936 -11.620  1.00  0.00     0.053 C 
BRANCH  15  16
HETATM   16  C   UNL     1      -6.385  14.482 -12.039  1.00  0.00    -0.027 C 
HETATM   17  C   UNL     1      -6.312  13.980 -13.288  1.00  0.00    -0.027 C 
BRANCH  17  18
HETATM   18  C   UNL     1      -6.204  14.755 -14.575  1.00  0.00     0.053 C 
BRANCH  18  19
HETATM   19  C   UNL     1      -4.756  14.973 -14.946  1.00  0.00    -0.027 C 
HETATM   20  C   UNL     1      -4.168  16.130 -15.313  1.00  0.00    -0.027 C 
BRANCH  20  21
HETATM   21  C   UNL     1      -4.809  17.493 -15.385  1.00  0.00     0.053 C 
BRANCH  21  22
HETATM   22  C   UNL     1      -4.851  18.141 -14.021  1.00  0.00    -0.027 C 
HETATM   23  C   UNL     1      -5.613  19.184 -13.637  1.00  0.00    -0.031 C 
BRANCH  23  24
HETATM   24  C   UNL     1      -6.585  19.950 -14.497  1.00  0.00     0.022 C 
HETATM   25  C   UNL     1      -5.909  21.059 -15.293  1.00  0.00     0.009 C 
ENDBRANCH  23  24
ENDBRANCH  21  22
ENDBRANCH  20  21
ENDBRANCH  18  19
ENDBRANCH  17  18
ENDBRANCH  15  16
ENDBRANCH  14  15
ENDBRANCH  12  13
ENDBRANCH  11  12
ENDBRANCH   9  10
ENDBRANCH   8   9
ENDBRANCH   6   7
ENDBRANCH   5   6
ENDBRANCH   3   5
ENDBRANCH   1   3
TORSDOF 15
ENDMDL
MODEL 6
REMARK VINA RESULT:      -4.4      2.070      3.261
REMARK  15 active torsions:
REMARK  status: ('A' for Active; 'I' for Inactive)
REMARK    1  A    between atoms: O_1  and  C_23 
REMARK    2  A    between atoms: C_3  and  C_7 
REMARK    3  A    between atoms: C_3  and  C_8 
REMARK    4  A    between atoms: C_4  and  C_10 
REMARK    5  A    between atoms: C_4  and  C_11 
REMARK    6  A    between atoms: C_5  and  C_12 
REMARK    7  A    between atoms: C_5  and  C_13 
REMARK    8  A    between atoms: C_6  and  C_15 
REMARK    9  A    between atoms: C_6  and  C_16 
REMARK   10  A    between atoms: C_7  and  C_23 
REMARK   11  A    between atoms: C_9  and  C_17 
REMARK   12  A    between atoms: C_9  and  C_18 
REMARK   13  A    between atoms: C_14  and  C_19 
REMARK   14  A    between atoms: C_14  and  C_20 
REMARK   15  A    between atoms: C_21  and  C_22 
ROOT
HETATM    1  O   UNL     1     -37.077  -3.594  -5.729  1.00  0.00    -0.776 OA
HETATM    2  H   UNL     1     -36.342  -3.135  -5.301  1.00  0.00     0.167 HD
ENDROOT
BRANCH   1   3
HETATM    3  C   UNL     1     -37.028  -4.919  -5.984  1.00  0.00     0.139 C 
HETATM    4  O   UNL     1     -36.185  -5.617  -5.437  1.00  0.00    -0.650 OA
BRANCH   3   5
HETATM    5  C   UNL     1     -38.012  -5.533  -6.938  1.00  0.00     0.113 C 
BRANCH   5   6
HETATM    6  C   UNL     1     -37.291  -6.322  -8.037  1.00  0.00     0.037 C 
BRANCH   6   7
HETATM    7  C   UNL     1     -37.641  -5.776  -9.400  1.00  0.00    -0.030 C 
HETATM    8  C   UNL     1     -37.357  -6.335 -10.596  1.00  0.00    -0.027 C 
BRANCH   8   9
HETATM    9  C   UNL     1     -36.624  -7.634 -10.856  1.00  0.00     0.053 C 
BRANCH   9  10
HETATM   10  C   UNL     1     -35.272  -7.374 -11.469  1.00  0.00    -0.027 C 
HETATM   11  C   UNL     1     -34.973  -7.459 -12.777  1.00  0.00    -0.027 C 
BRANCH  11  12
HETATM   12  C   UNL     1     -35.951  -7.775 -13.879  1.00  0.00     0.053 C 
BRANCH  12  13
HETATM   13  C   UNL     1     -36.831  -6.585 -14.174  1.00  0.00    -0.027 C 
HETATM   14  C   UNL     1     -38.177  -6.560 -14.165  1.00  0.00    -0.027 C 
BRANCH  14  15
HETATM   15  C   UNL     1     -39.084  -7.733 -13.905  1.00  0.00     0.053 C 
BRANCH  15  16
HETATM   16  C   UNL     1     -40.027  -7.881 -15.078  1.00  0.00    -0.027 C 
HETATM   17  C   UNL     1     -39.718  -8.156 -16.361  1.00  0.00    -0.027 C 
BRANCH  17  18
HETATM   18  C   UNL     1     -38.346  -8.403 -16.932  1.00  0.00     0.053 C 
BRANCH  18  19
HETATM   19  C   UNL     1     -37.952  -7.289 -17.874  1.00  0.00    -0.027 C 
HETATM   20  C   UNL     1     -36.720  -6.776 -18.068  1.00  0.00    -0.027 C 
BRANCH  20  21
HETATM   21  C   UNL     1     -35.432  -7.235 -17.429  1.00  0.00     0.053 C 
BRANCH  21  22
HETATM   22  C   UNL     1     -34.600  -8.030 -18.408  1.00  0.00    -0.027 C 
HETATM   23  C   UNL     1     -34.524  -9.372 -18.511  1.00  0.00    -0.031 C 
BRANCH  23  24
HETATM   24  C   UNL     1     -35.245 -10.380 -17.655  1.00  0.00     0.022 C 
HETATM   25  C   UNL     1     -34.499 -10.688 -16.363  1.00  0.00     0.009 C 
ENDBRANCH  23  24
ENDBRANCH  21  22
ENDBRANCH  20  21
ENDBRANCH  18  19
ENDBRANCH  17  18
ENDBRANCH  15  16
ENDBRANCH  14  15
ENDBRANCH  12  13
ENDBRANCH  11  12
ENDBRANCH   9  10
ENDBRANCH   8   9
ENDBRANCH   6   7
ENDBRANCH   5   6
ENDBRANCH   3   5
ENDBRANCH   1   3
TORSDOF 15
ENDMDL
MODEL 7
REMARK VINA RESULT:      -4.3      4.538      9.162
REMARK  15 active torsions:
REMARK  status: ('A' for Active; 'I' for Inactive)
REMARK    1  A    between atoms: O_1  and  C_23 
REMARK    2  A    between atoms: C_3  and  C_7 
REMARK    3  A    between atoms: C_3  and  C_8 
REMARK    4  A    between atoms: C_4  and  C_10 
REMARK    5  A    between atoms: C_4  and  C_11 
REMARK    6  A    between atoms: C_5  and  C_12 
REMARK    7  A    between atoms: C_5  and  C_13 
REMARK    8  A    between atoms: C_6  and  C_15 
REMARK    9  A    between atoms: C_6  and  C_16 
REMARK   10  A    between atoms: C_7  and  C_23 
REMARK   11  A    between atoms: C_9  and  C_17 
REMARK   12  A    between atoms: C_9  and  C_18 
REMARK   13  A    between atoms: C_14  and  C_19 
REMARK   14  A    between atoms: C_14  and  C_20 
REMARK   15  A    between atoms: C_21  and  C_22 
ROOT
HETATM    1  O   UNL     1     -35.596 -11.858 -16.788  1.00  0.00    -0.776 OA
HETATM    2  H   UNL     1     -36.142 -11.875 -15.990  1.00  0.00     0.167 HD
ENDROOT
BRANCH   1   3
HETATM    3  C   UNL     1     -34.569 -10.991 -16.920  1.00  0.00     0.139 C 
HETATM    4  O   UNL     1     -33.867 -10.722 -15.956  1.00  0.00    -0.650 OA
BRANCH   3   5
HETATM    5  C   UNL     1     -34.291 -10.362 -18.255  1.00  0.00     0.113 C 
BRANCH   5   6
HETATM    6  C   UNL     1     -34.911  -8.962 -18.340  1.00  0.00     0.037 C 
BRANCH   6   7
HETATM    7  C   UNL     1     -34.135  -8.094 -19.302  1.00  0.00    -0.030 C 
HETATM    8  C   UNL     1     -34.617  -7.458 -20.391  1.00  0.00    -0.027 C 
BRANCH   8   9
HETATM    9  C   UNL     1     -36.041  -7.462 -20.906  1.00  0.00     0.053 C 
BRANCH   9  10
HETATM   10  C   UNL     1     -36.591  -6.059 -20.973  1.00  0.00    -0.027 C 
HETATM   11  C   UNL     1     -37.382  -5.481 -20.052  1.00  0.00    -0.027 C 
BRANCH  11  12
HETATM   12  C   UNL     1     -37.818  -6.111 -18.755  1.00  0.00     0.053 C 
BRANCH  12  13
HETATM   13  C   UNL     1     -37.544  -5.190 -17.591  1.00  0.00    -0.027 C 
HETATM   14  C   UNL     1     -37.181  -5.554 -16.347  1.00  0.00    -0.027 C 
BRANCH  14  15
HETATM   15  C   UNL     1     -37.022  -6.965 -15.847  1.00  0.00     0.053 C 
BRANCH  15  16
HETATM   16  C   UNL     1     -36.204  -6.935 -14.575  1.00  0.00    -0.027 C 
HETATM   17  C   UNL     1     -36.537  -6.386 -13.389  1.00  0.00    -0.027 C 
BRANCH  17  18
HETATM   18  C   UNL     1     -37.823  -5.683 -13.041  1.00  0.00     0.053 C 
BRANCH  18  19
HETATM   19  C   UNL     1     -37.571  -4.568 -12.053  1.00  0.00    -0.027 C 
HETATM   20  C   UNL     1     -37.836  -4.567 -10.731  1.00  0.00    -0.027 C 
BRANCH  20  21
HETATM   21  C   UNL     1     -38.400  -5.705  -9.915  1.00  0.00     0.053 C 
BRANCH  21  22
HETATM   22  C   UNL     1     -37.298  -6.450  -9.198  1.00  0.00    -0.027 C 
HETATM   23  C   UNL     1     -37.036  -6.444  -7.877  1.00  0.00    -0.031 C 
BRANCH  23  24
HETATM   24  C   UNL     1     -37.779  -5.671  -6.818  1.00  0.00     0.022 C 
HETATM   25  C   UNL     1     -36.849  -4.847  -5.937  1.00  0.00     0.009 C 
ENDBRANCH  23  24
ENDBRANCH  21  22
ENDBRANCH  20  21
ENDBRANCH  18  19
ENDBRANCH  17  18
ENDBRANCH  15  16
ENDBRANCH  14  15
ENDBRANCH  12  13
ENDBRANCH  11  12
ENDBRANCH   9  10
ENDBRANCH   8   9
ENDBRANCH   6   7
ENDBRANCH   5   6
ENDBRANCH   3   5
ENDBRANCH   1   3
TORSDOF 15
ENDMDL
MODEL 8
REMARK VINA RESULT:      -4.3      3.783      6.624
REMARK  15 active torsions:
REMARK  status: ('A' for Active; 'I' for Inactive)
REMARK    1  A    between atoms: O_1  and  C_23 
REMARK    2  A    between atoms: C_3  and  C_7 
REMARK    3  A    between atoms: C_3  and  C_8 
REMARK    4  A    between atoms: C_4  and  C_10 
REMARK    5  A    between atoms: C_4  and  C_11 
REMARK    6  A    between atoms: C_5  and  C_12 
REMARK    7  A    between atoms: C_5  and  C_13 
REMARK    8  A    between atoms: C_6  and  C_15 
REMARK    9  A    between atoms: C_6  and  C_16 
REMARK   10  A    between atoms: C_7  and  C_23 
REMARK   11  A    between atoms: C_9  and  C_17 
REMARK   12  A    between atoms: C_9  and  C_18 
REMARK   13  A    between atoms: C_14  and  C_19 
REMARK   14  A    between atoms: C_14  and  C_20 
REMARK   15  A    between atoms: C_21  and  C_22 
ROOT
HETATM    1  O   UNL     1     -35.359  -9.273 -14.367  1.00  0.00    -0.776 OA
HETATM    2  H   UNL     1     -35.231  -9.656 -15.246  1.00  0.00     0.167 HD
ENDROOT
BRANCH   1   3
HETATM    3  C   UNL     1     -34.536  -8.314 -13.891  1.00  0.00     0.139 C 
HETATM    4  O   UNL     1     -33.425  -8.163 -14.379  1.00  0.00    -0.650 OA
BRANCH   3   5
HETATM    5  C   UNL     1     -34.991  -7.433 -12.763  1.00  0.00     0.113 C 
BRANCH   5   6
HETATM    6  C   UNL     1     -36.466  -7.687 -12.431  1.00  0.00     0.037 C 
BRANCH   6   7
HETATM    7  C   UNL     1     -37.309  -6.490 -12.801  1.00  0.00    -0.030 C 
HETATM    8  C   UNL     1     -37.416  -5.330 -12.119  1.00  0.00    -0.027 C 
BRANCH   8   9
HETATM    9  C   UNL     1     -36.723  -4.953 -10.827  1.00  0.00     0.053 C 
BRANCH   9  10
HETATM   10  C   UNL     1     -37.697  -4.952  -9.676  1.00  0.00    -0.027 C 
HETATM   11  C   UNL     1     -37.909  -5.973  -8.826  1.00  0.00    -0.027 C 
BRANCH  11  12
HETATM   12  C   UNL     1     -37.170  -7.286  -8.835  1.00  0.00     0.053 C 
BRANCH  12  13
HETATM   13  C   UNL     1     -36.012  -7.257  -7.869  1.00  0.00    -0.027 C 
HETATM   14  C   UNL     1     -34.746  -7.640  -8.121  1.00  0.00    -0.027 C 
BRANCH  14  15
HETATM   15  C   UNL     1     -34.237  -8.225  -9.411  1.00  0.00     0.053 C 
BRANCH  15  16
HETATM   16  C   UNL     1     -33.880  -9.675  -9.174  1.00  0.00    -0.027 C 
HETATM   17  C   UNL     1     -34.680 -10.755  -9.285  1.00  0.00    -0.027 C 
BRANCH  17  18
HETATM   18  C   UNL     1     -36.129 -10.774  -9.694  1.00  0.00     0.053 C 
BRANCH  18  19
HETATM   19  C   UNL     1     -36.262 -11.035 -11.176  1.00  0.00    -0.027 C 
HETATM   20  C   UNL     1     -37.399 -11.202 -11.882  1.00  0.00    -0.027 C 
BRANCH  20  21
HETATM   21  C   UNL     1     -38.813 -11.114 -11.363  1.00  0.00     0.053 C 
BRANCH  21  22
HETATM   22  C   UNL     1     -39.690 -10.341 -12.321  1.00  0.00    -0.027 C 
HETATM   23  C   UNL     1     -40.151  -9.084 -12.170  1.00  0.00    -0.031 C 
BRANCH  23  24
HETATM   24  C   UNL     1     -39.907  -8.173 -10.995  1.00  0.00     0.022 C 
HETATM   25  C   UNL     1     -40.813  -8.492  -9.812  1.00  0.00     0.009 C 
ENDBRANCH  23  24
ENDBRANCH  21  22
ENDBRANCH  20  21
ENDBRANCH  18  19
ENDBRANCH  17  18
ENDBRANCH  15  16
ENDBRANCH  14  15
ENDBRANCH  12  13
ENDBRANCH  11  12
ENDBRANCH   9  10
ENDBRANCH   8   9
ENDBRANCH   6   7
ENDBRANCH   5   6
ENDBRANCH   3   5
ENDBRANCH   1   3
TORSDOF 15
ENDMDL
MODEL 9
REMARK VINA RESULT:      -4.3     22.854     24.599
REMARK  15 active torsions:
REMARK  status: ('A' for Active; 'I' for Inactive)
REMARK    1  A    between atoms: O_1  and  C_23 
REMARK    2  A    between atoms: C_3  and  C_7 
REMARK    3  A    between atoms: C_3  and  C_8 
REMARK    4  A    between atoms: C_4  and  C_10 
REMARK    5  A    between atoms: C_4  and  C_11 
REMARK    6  A    between atoms: C_5  and  C_12 
REMARK    7  A    between atoms: C_5  and  C_13 
REMARK    8  A    between atoms: C_6  and  C_15 
REMARK    9  A    between atoms: C_6  and  C_16 
REMARK   10  A    between atoms: C_7  and  C_23 
REMARK   11  A    between atoms: C_9  and  C_17 
REMARK   12  A    between atoms: C_9  and  C_18 
REMARK   13  A    between atoms: C_14  and  C_19 
REMARK   14  A    between atoms: C_14  and  C_20 
REMARK   15  A    between atoms: C_21  and  C_22 
ROOT
HETATM    1  O   UNL     1     -25.962  17.350 -15.627  1.00  0.00    -0.776 OA
HETATM    2  H   UNL     1     -25.751  17.279 -16.568  1.00  0.00     0.167 HD
ENDROOT
BRANCH   1   3
HETATM    3  C   UNL     1     -27.220  17.601 -15.205  1.00  0.00     0.139 C 
HETATM    4  O   UNL     1     -27.950  18.333 -15.857  1.00  0.00    -0.650 OA
BRANCH   3   5
HETATM    5  C   UNL     1     -27.720  16.975 -13.934  1.00  0.00     0.113 C 
BRANCH   5   6
HETATM    6  C   UNL     1     -28.368  18.025 -13.024  1.00  0.00     0.037 C 
BRANCH   6   7
HETATM    7  C   UNL     1     -27.685  18.058 -11.678  1.00  0.00    -0.030 C 
HETATM    8  C   UNL     1     -28.055  17.392 -10.564  1.00  0.00    -0.027 C 
BRANCH   8   9
HETATM    9  C   UNL     1     -29.234  16.458 -10.397  1.00  0.00     0.053 C 
BRANCH   9  10
HETATM   10  C   UNL     1     -29.522  16.212  -8.937  1.00  0.00    -0.027 C 
HETATM   11  C   UNL     1     -29.826  15.023  -8.386  1.00  0.00    -0.027 C 
BRANCH  11  12
HETATM   12  C   UNL     1     -29.876  13.708  -9.118  1.00  0.00     0.053 C 
BRANCH  12  13
HETATM   13  C   UNL     1     -31.252  13.460  -9.685  1.00  0.00    -0.027 C 
HETATM   14  C   UNL     1     -31.546  12.789 -10.815  1.00  0.00    -0.027 C 
BRANCH  14  15
HETATM   15  C   UNL     1     -30.552  12.187 -11.772  1.00  0.00     0.053 C 
BRANCH  15  16
HETATM   16  C   UNL     1     -29.989  13.291 -12.639  1.00  0.00    -0.027 C 
HETATM   17  C   UNL     1     -28.723  13.752 -12.674  1.00  0.00    -0.027 C 
BRANCH  17  18
HETATM   18  C   UNL     1     -27.552  13.259 -11.866  1.00  0.00     0.053 C 
BRANCH  18  19
HETATM   19  C   UNL     1     -26.408  14.244 -11.927  1.00  0.00    -0.027 C 
HETATM   20  C   UNL     1     -25.653  14.690 -10.902  1.00  0.00    -0.027 C 
BRANCH  20  21
HETATM   21  C   UNL     1     -25.739  14.267  -9.457  1.00  0.00     0.053 C 
BRANCH  21  22
HETATM   22  C   UNL     1     -25.902  15.467  -8.553  1.00  0.00    -0.027 C 
HETATM   23  C   UNL     1     -26.014  15.467  -7.210  1.00  0.00    -0.031 C 
BRANCH  23  24
HETATM   24  C   UNL     1     -26.020  14.259  -6.310  1.00  0.00     0.022 C 
HETATM   25  C   UNL     1     -27.120  13.269  -6.670  1.00  0.00     0.009 C 
ENDBRANCH  23  24
ENDBRANCH  21  22
ENDBRANCH  20  21
ENDBRANCH  18  19
ENDBRANCH  17  18
ENDBRANCH  15  16
ENDBRANCH  14  15
ENDBRANCH  12  13
ENDBRANCH  11  12
ENDBRANCH   9  10
ENDBRANCH   8   9
ENDBRANCH   6   7
ENDBRANCH   5   6
ENDBRANCH   3   5
ENDBRANCH   1   3
TORSDOF 15
ENDMDL
MODEL 10
REMARK VINA RESULT:      -4.3      3.802      7.273
REMARK  15 active torsions:
REMARK  status: ('A' for Active; 'I' for Inactive)
REMARK    1  A    between atoms: O_1  and  C_23 
REMARK    2  A    between atoms: C_3  and  C_7 
REMARK    3  A    between atoms: C_3  and  C_8 
REMARK    4  A    between atoms: C_4  and  C_10 
REMARK    5  A    between atoms: C_4  and  C_11 
REMARK    6  A    between atoms: C_5  and  C_12 
REMARK    7  A    between atoms: C_5  and  C_13 
REMARK    8  A    between atoms: C_6  and  C_15 
REMARK    9  A    between atoms: C_6  and  C_16 
REMARK   10  A    between atoms: C_7  and  C_23 
REMARK   11  A    between atoms: C_9  and  C_17 
REMARK   12  A    between atoms: C_9  and  C_18 
REMARK   13  A    between atoms: C_14  and  C_19 
REMARK   14  A    between atoms: C_14  and  C_20 
REMARK   15  A    between atoms: C_21  and  C_22 
ROOT
HETATM    1  O   UNL     1     -33.676  -7.153 -16.087  1.00  0.00    -0.776 OA
HETATM    2  H   UNL     1     -33.630  -7.340 -17.035  1.00  0.00     0.167 HD
ENDROOT
BRANCH   1   3
HETATM    3  C   UNL     1     -34.353  -7.961 -15.243  1.00  0.00     0.139 C 
HETATM    4  O   UNL     1     -33.812  -8.956 -14.781  1.00  0.00    -0.650 OA
BRANCH   3   5
HETATM    5  C   UNL     1     -35.770  -7.631 -14.870  1.00  0.00     0.113 C 
BRANCH   5   6
HETATM    6  C   UNL     1     -36.066  -8.045 -13.424  1.00  0.00     0.037 C 
BRANCH   6   7
HETATM    7  C   UNL     1     -35.723  -6.926 -12.470  1.00  0.00    -0.030 C 
HETATM    8  C   UNL     1     -35.004  -7.022 -11.331  1.00  0.00    -0.027 C 
BRANCH   8   9
HETATM    9  C   UNL     1     -34.373  -8.265 -10.742  1.00  0.00     0.053 C 
BRANCH   9  10
HETATM   10  C   UNL     1     -34.190  -8.119  -9.252  1.00  0.00    -0.027 C 
HETATM   11  C   UNL     1     -34.722  -8.922  -8.313  1.00  0.00    -0.027 C 
BRANCH  11  12
HETATM   12  C   UNL     1     -35.551 -10.151  -8.582  1.00  0.00     0.053 C 
BRANCH  12  13
HETATM   13  C   UNL     1     -36.954  -9.979  -8.055  1.00  0.00    -0.027 C 
HETATM   14  C   UNL     1     -37.981  -9.378  -8.686  1.00  0.00    -0.027 C 
BRANCH  14  15
HETATM   15  C   UNL     1     -37.925  -8.710 -10.033  1.00  0.00     0.053 C 
BRANCH  15  16
HETATM   16  C   UNL     1     -39.019  -7.667 -10.098  1.00  0.00    -0.027 C 
HETATM   17  C   UNL     1     -38.904  -6.334  -9.928  1.00  0.00    -0.027 C 
BRANCH  17  18
HETATM   18  C   UNL     1     -37.644  -5.558  -9.649  1.00  0.00     0.053 C 
BRANCH  18  19
HETATM   19  C   UNL     1     -37.765  -4.795  -8.351  1.00  0.00    -0.027 C 
HETATM   20  C   UNL     1     -37.337  -5.178  -7.130  1.00  0.00    -0.027 C 
BRANCH  20  21
HETATM   21  C   UNL     1     -36.586  -6.440  -6.785  1.00  0.00     0.053 C 
BRANCH  21  22
HETATM   22  C   UNL     1     -37.290  -7.202  -5.686  1.00  0.00    -0.027 C 
HETATM   23  C   UNL     1     -36.753  -7.659  -4.538  1.00  0.00    -0.031 C 
BRANCH  23  24
HETATM   24  C   UNL     1     -35.317  -7.526  -4.104  1.00  0.00     0.022 C 
HETATM   25  C   UNL     1     -34.428  -8.616  -4.689  1.00  0.00     0.009 C 
ENDBRANCH  23  24
ENDBRANCH  21  22
ENDBRANCH  20  21
ENDBRANCH  18  19
ENDBRANCH  17  18
ENDBRANCH  15  16
ENDBRANCH  14  15
ENDBRANCH  12  13
ENDBRANCH  11  12
ENDBRANCH   9  10
ENDBRANCH   8   9
ENDBRANCH   6   7
ENDBRANCH   5   6
ENDBRANCH   3   5
ENDBRANCH   1   3
TORSDOF 15
ENDMDL
MODEL 11
REMARK VINA RESULT:      -4.3      3.203      8.013
REMARK  15 active torsions:
REMARK  status: ('A' for Active; 'I' for Inactive)
REMARK    1  A    between atoms: O_1  and  C_23 
REMARK    2  A    between atoms: C_3  and  C_7 
REMARK    3  A    between atoms: C_3  and  C_8 
REMARK    4  A    between atoms: C_4  and  C_10 
REMARK    5  A    between atoms: C_4  and  C_11 
REMARK    6  A    between atoms: C_5  and  C_12 
REMARK    7  A    between atoms: C_5  and  C_13 
REMARK    8  A    between atoms: C_6  and  C_15 
REMARK    9  A    between atoms: C_6  and  C_16 
REMARK   10  A    between atoms: C_7  and  C_23 
REMARK   11  A    between atoms: C_9  and  C_17 
REMARK   12  A    between atoms: C_9  and  C_18 
REMARK   13  A    between atoms: C_14  and  C_19 
REMARK   14  A    between atoms: C_14  and  C_20 
REMARK   15  A    between atoms: C_21  and  C_22 
ROOT
HETATM    1  O   UNL     1     -37.194  -3.603 -10.631  1.00  0.00    -0.776 OA
HETATM    2  H   UNL     1     -37.298  -3.814  -9.692  1.00  0.00     0.167 HD
ENDROOT
BRANCH   1   3
HETATM    3  C   UNL     1     -37.489  -4.506 -11.591  1.00  0.00     0.139 C 
HETATM    4  O   UNL     1     -37.850  -4.128 -12.696  1.00  0.00    -0.650 OA
BRANCH   3   5
HETATM    5  C   UNL     1     -37.367  -5.974 -11.298  1.00  0.00     0.113 C 
BRANCH   5   6
HETATM    6  C   UNL     1     -36.080  -6.272 -10.520  1.00  0.00     0.037 C 
BRANCH   6   7
HETATM    7  C   UNL     1     -35.206  -7.235 -11.287  1.00  0.00    -0.030 C 
HETATM    8  C   UNL     1     -34.403  -8.190 -10.771  1.00  0.00    -0.027 C 
BRANCH   8   9
HETATM    9  C   UNL     1     -34.187  -8.522  -9.310  1.00  0.00     0.053 C 
BRANCH   9  10
HETATM   10  C   UNL     1     -35.186  -9.549  -8.840  1.00  0.00    -0.027 C 
HETATM   11  C   UNL     1     -34.903 -10.814  -8.481  1.00  0.00    -0.027 C 
BRANCH  11  12
HETATM   12  C   UNL     1     -33.524 -11.419  -8.427  1.00  0.00     0.053 C 
BRANCH  12  13
HETATM   13  C   UNL     1     -33.537 -12.722  -7.667  1.00  0.00    -0.027 C 
HETATM   14  C   UNL     1     -33.590 -12.870  -6.330  1.00  0.00    -0.027 C 
BRANCH  14  15
HETATM   15  C   UNL     1     -33.597 -11.759  -5.314  1.00  0.00     0.053 C 
BRANCH  15  16
HETATM   16  C   UNL     1     -34.849 -11.883  -4.475  1.00  0.00    -0.027 C 
HETATM   17  C   UNL     1     -35.891 -11.028  -4.410  1.00  0.00    -0.027 C 
BRANCH  17  18
HETATM   18  C   UNL     1     -36.063  -9.745  -5.179  1.00  0.00     0.053 C 
BRANCH  18  19
HETATM   19  C   UNL     1     -35.328  -8.613  -4.500  1.00  0.00    -0.027 C 
HETATM   20  C   UNL     1     -35.032  -7.402  -5.013  1.00  0.00    -0.027 C 
BRANCH  20  21
HETATM   21  C   UNL     1     -35.415  -6.871  -6.372  1.00  0.00     0.053 C 
BRANCH  21  22
HETATM   22  C   UNL     1     -36.614  -5.956  -6.274  1.00  0.00    -0.027 C 
HETATM   23  C   UNL     1     -37.907  -6.283  -6.460  1.00  0.00    -0.031 C 
BRANCH  23  24
HETATM   24  C   UNL     1     -38.444  -7.642  -6.829  1.00  0.00     0.022 C 
HETATM   25  C   UNL     1     -38.621  -7.810  -8.333  1.00  0.00     0.009 C 
ENDBRANCH  23  24
ENDBRANCH  21  22
ENDBRANCH  20  21
ENDBRANCH  18  19
ENDBRANCH  17  18
ENDBRANCH  15  16
ENDBRANCH  14  15
ENDBRANCH  12  13
ENDBRANCH  11  12
ENDBRANCH   9  10
ENDBRANCH   8   9
ENDBRANCH   6   7
ENDBRANCH   5   6
ENDBRANCH   3   5
ENDBRANCH   1   3
TORSDOF 15
ENDMDL
MODEL 12
REMARK VINA RESULT:      -4.2      3.246      5.400
REMARK  15 active torsions:
REMARK  status: ('A' for Active; 'I' for Inactive)
REMARK    1  A    between atoms: O_1  and  C_23 
REMARK    2  A    between atoms: C_3  and  C_7 
REMARK    3  A    between atoms: C_3  and  C_8 
REMARK    4  A    between atoms: C_4  and  C_10 
REMARK    5  A    between atoms: C_4  and  C_11 
REMARK    6  A    between atoms: C_5  and  C_12 
REMARK    7  A    between atoms: C_5  and  C_13 
REMARK    8  A    between atoms: C_6  and  C_15 
REMARK    9  A    between atoms: C_6  and  C_16 
REMARK   10  A    between atoms: C_7  and  C_23 
REMARK   11  A    between atoms: C_9  and  C_17 
REMARK   12  A    between atoms: C_9  and  C_18 
REMARK   13  A    between atoms: C_14  and  C_19 
REMARK   14  A    between atoms: C_14  and  C_20 
REMARK   15  A    between atoms: C_21  and  C_22 
ROOT
HETATM    1  O   UNL     1     -34.366  -9.117 -10.873  1.00  0.00    -0.776 OA
HETATM    2  H   UNL     1     -34.903  -9.663 -11.463  1.00  0.00     0.167 HD
ENDROOT
BRANCH   1   3
HETATM    3  C   UNL     1     -34.506  -7.775 -10.835  1.00  0.00     0.139 C 
HETATM    4  O   UNL     1     -33.725  -7.060 -11.447  1.00  0.00    -0.650 OA
BRANCH   3   5
HETATM    5  C   UNL     1     -35.625  -7.163 -10.041  1.00  0.00     0.113 C 
BRANCH   5   6
HETATM    6  C   UNL     1     -36.586  -6.393 -10.954  1.00  0.00     0.037 C 
BRANCH   6   7
HETATM    7  C   UNL     1     -37.881  -6.100 -10.236  1.00  0.00    -0.030 C 
HETATM    8  C   UNL     1     -38.900  -6.957 -10.016  1.00  0.00    -0.027 C 
BRANCH   8   9
HETATM    9  C   UNL     1     -38.989  -8.410 -10.434  1.00  0.00     0.053 C 
BRANCH   9  10
HETATM   10  C   UNL     1     -40.394  -8.764 -10.849  1.00  0.00    -0.027 C 
HETATM   11  C   UNL     1     -40.732  -9.560 -11.880  1.00  0.00    -0.027 C 
BRANCH  11  12
HETATM   12  C   UNL     1     -39.764 -10.291 -12.773  1.00  0.00     0.053 C 
BRANCH  12  13
HETATM   13  C   UNL     1     -39.835  -9.767 -14.186  1.00  0.00    -0.027 C 
HETATM   14  C   UNL     1     -39.125  -8.745 -14.700  1.00  0.00    -0.027 C 
BRANCH  14  15
HETATM   15  C   UNL     1     -38.145  -7.881 -13.951  1.00  0.00     0.053 C 
BRANCH  15  16
HETATM   16  C   UNL     1     -36.864  -8.661 -13.759  1.00  0.00    -0.027 C 
HETATM   17  C   UNL     1     -35.629  -8.349 -14.201  1.00  0.00    -0.027 C 
BRANCH  17  18
HETATM   18  C   UNL     1     -35.225  -7.126 -14.982  1.00  0.00     0.053 C 
BRANCH  18  19
HETATM   19  C   UNL     1     -34.524  -7.519 -16.262  1.00  0.00    -0.027 C 
HETATM   20  C   UNL     1     -35.092  -7.881 -17.431  1.00  0.00    -0.027 C 
BRANCH  20  21
HETATM   21  C   UNL     1     -36.565  -7.925 -17.752  1.00  0.00     0.053 C 
BRANCH  21  22
HETATM   22  C   UNL     1     -37.005  -6.652 -18.437  1.00  0.00    -0.027 C 
HETATM   23  C   UNL     1     -37.601  -5.585 -17.870  1.00  0.00    -0.031 C 
BRANCH  23  24
HETATM   24  C   UNL     1     -37.979  -5.434 -16.419  1.00  0.00     0.022 C 
HETATM   25  C   UNL     1     -37.350  -4.204 -15.777  1.00  0.00     0.009 C 
ENDBRANCH  23  24
ENDBRANCH  21  22
ENDBRANCH  20  21
ENDBRANCH  18  19
ENDBRANCH  17  18
ENDBRANCH  15  16
ENDBRANCH  14  15
ENDBRANCH  12  13
ENDBRANCH  11  12
ENDBRANCH   9  10
ENDBRANCH   8   9
ENDBRANCH   6   7
ENDBRANCH   5   6
ENDBRANCH   3   5
ENDBRANCH   1   3
TORSDOF 15
ENDMDL
MODEL 13
REMARK VINA RESULT:      -4.2     22.627     24.562
REMARK  15 active torsions:
REMARK  status: ('A' for Active; 'I' for Inactive)
REMARK    1  A    between atoms: O_1  and  C_23 
REMARK    2  A    between atoms: C_3  and  C_7 
REMARK    3  A    between atoms: C_3  and  C_8 
REMARK    4  A    between atoms: C_4  and  C_10 
REMARK    5  A    between atoms: C_4  and  C_11 
REMARK    6  A    between atoms: C_5  and  C_12 
REMARK    7  A    between atoms: C_5  and  C_13 
REMARK    8  A    between atoms: C_6  and  C_15 
REMARK    9  A    between atoms: C_6  and  C_16 
REMARK   10  A    between atoms: C_7  and  C_23 
REMARK   11  A    between atoms: C_9  and  C_17 
REMARK   12  A    between atoms: C_9  and  C_18 
REMARK   13  A    between atoms: C_14  and  C_19 
REMARK   14  A    between atoms: C_14  and  C_20 
REMARK   15  A    between atoms: C_21  and  C_22 
ROOT
HETATM    1  O   UNL     1     -32.260  11.130 -16.704  1.00  0.00    -0.776 OA
HETATM    2  H   UNL     1     -32.944  10.721 -17.252  1.00  0.00     0.167 HD
ENDROOT
BRANCH   1   3
HETATM    3  C   UNL     1     -32.461  12.322 -16.102  1.00  0.00     0.139 C 
HETATM    4  O   UNL     1     -33.560  12.856 -16.152  1.00  0.00    -0.650 OA
BRANCH   3   5
HETATM    5  C   UNL     1     -31.332  12.986 -15.368  1.00  0.00     0.113 C 
BRANCH   5   6
HETATM    6  C   UNL     1     -29.992  12.713 -16.061  1.00  0.00     0.037 C 
BRANCH   6   7
HETATM    7  C   UNL     1     -29.817  13.618 -17.257  1.00  0.00    -0.030 C 
HETATM    8  C   UNL     1     -28.653  13.999 -17.824  1.00  0.00    -0.027 C 
BRANCH   8   9
HETATM    9  C   UNL     1     -27.252  13.613 -17.400  1.00  0.00     0.053 C 
BRANCH   9  10
HETATM   10  C   UNL     1     -26.236  14.093 -18.405  1.00  0.00    -0.027 C 
HETATM   11  C   UNL     1     -25.665  15.311 -18.424  1.00  0.00    -0.027 C 
BRANCH  11  12
HETATM   12  C   UNL     1     -25.894  16.400 -17.409  1.00  0.00     0.053 C 
BRANCH  12  13
HETATM   13  C   UNL     1     -27.086  17.244 -17.784  1.00  0.00    -0.027 C 
HETATM   14  C   UNL     1     -27.921  17.876 -16.938  1.00  0.00    -0.027 C 
BRANCH  14  15
HETATM   15  C   UNL     1     -27.864  17.828 -15.435  1.00  0.00     0.053 C 
BRANCH  15  16
HETATM   16  C   UNL     1     -28.686  16.652 -14.959  1.00  0.00    -0.027 C 
HETATM   17  C   UNL     1     -28.250  15.517 -14.377  1.00  0.00    -0.027 C 
BRANCH  17  18
HETATM   18  C   UNL     1     -26.827  15.156 -14.041  1.00  0.00     0.053 C 
BRANCH  18  19
HETATM   19  C   UNL     1     -26.730  13.711 -13.611  1.00  0.00    -0.027 C 
HETATM   20  C   UNL     1     -26.562  13.236 -12.360  1.00  0.00    -0.027 C 
BRANCH  20  21
HETATM   21  C   UNL     1     -26.486  14.039 -11.085  1.00  0.00     0.053 C 
BRANCH  21  22
HETATM   22  C   UNL     1     -27.852  14.545 -10.686  1.00  0.00    -0.027 C 
HETATM   23  C   UNL     1     -28.248  15.829 -10.586  1.00  0.00    -0.031 C 
BRANCH  23  24
HETATM   24  C   UNL     1     -27.403  17.051 -10.836  1.00  0.00     0.022 C 
HETATM   25  C   UNL     1     -28.143  18.119 -11.630  1.00  0.00     0.009 C 
ENDBRANCH  23  24
ENDBRANCH  21  22
ENDBRANCH  20  21
ENDBRANCH  18  19
ENDBRANCH  17  18
ENDBRANCH  15  16
ENDBRANCH  14  15
ENDBRANCH  12  13
ENDBRANCH  11  12
ENDBRANCH   9  10
ENDBRANCH   8   9
ENDBRANCH   6   7
ENDBRANCH   5   6
ENDBRANCH   3   5
ENDBRANCH   1   3
TORSDOF 15
ENDMDL
MODEL 14
REMARK VINA RESULT:      -4.2     22.963     25.030
REMARK  15 active torsions:
REMARK  status: ('A' for Active; 'I' for Inactive)
REMARK    1  A    between atoms: O_1  and  C_23 
REMARK    2  A    between atoms: C_3  and  C_7 
REMARK    3  A    between atoms: C_3  and  C_8 
REMARK    4  A    between atoms: C_4  and  C_10 
REMARK    5  A    between atoms: C_4  and  C_11 
REMARK    6  A    between atoms: C_5  and  C_12 
REMARK    7  A    between atoms: C_5  and  C_13 
REMARK    8  A    between atoms: C_6  and  C_15 
REMARK    9  A    between atoms: C_6  and  C_16 
REMARK   10  A    between atoms: C_7  and  C_23 
REMARK   11  A    between atoms: C_9  and  C_17 
REMARK   12  A    between atoms: C_9  and  C_18 
REMARK   13  A    between atoms: C_14  and  C_19 
REMARK   14  A    between atoms: C_14  and  C_20 
REMARK   15  A    between atoms: C_21  and  C_22 
ROOT
HETATM    1  O   UNL     1     -27.297  18.053 -12.986  1.00  0.00    -0.776 OA
HETATM    2  H   UNL     1     -26.985  18.928 -13.254  1.00  0.00     0.167 HD
ENDROOT
BRANCH   1   3
HETATM    3  C   UNL     1     -27.006  17.544 -11.769  1.00  0.00     0.139 C 
HETATM    4  O   UNL     1     -25.846  17.296 -11.471  1.00  0.00    -0.650 OA
BRANCH   3   5
HETATM    5  C   UNL     1     -28.110  17.289 -10.783  1.00  0.00     0.113 C 
BRANCH   5   6
HETATM    6  C   UNL     1     -27.872  18.064  -9.482  1.00  0.00     0.037 C 
BRANCH   6   7
HETATM    7  C   UNL     1     -28.728  19.307  -9.439  1.00  0.00    -0.030 C 
HETATM    8  C   UNL     1     -29.908  19.459  -8.801  1.00  0.00    -0.027 C 
BRANCH   8   9
HETATM    9  C   UNL     1     -30.651  18.427  -7.981  1.00  0.00     0.053 C 
BRANCH   9  10
HETATM   10  C   UNL     1     -31.460  17.516  -8.870  1.00  0.00    -0.027 C 
HETATM   11  C   UNL     1     -31.247  16.199  -9.045  1.00  0.00    -0.027 C 
BRANCH  11  12
HETATM   12  C   UNL     1     -30.198  15.381  -8.339  1.00  0.00     0.053 C 
BRANCH  12  13
HETATM   13  C   UNL     1     -30.790  14.110  -7.783  1.00  0.00    -0.027 C 
HETATM   14  C   UNL     1     -30.127  13.129  -7.142  1.00  0.00    -0.027 C 
BRANCH  14  15
HETATM   15  C   UNL     1     -28.644  13.077  -6.893  1.00  0.00     0.053 C 
BRANCH  15  16
HETATM   16  C   UNL     1     -28.320  13.989  -5.730  1.00  0.00    -0.027 C 
HETATM   17  C   UNL     1     -27.130  14.540  -5.416  1.00  0.00    -0.027 C 
BRANCH  17  18
HETATM   18  C   UNL     1     -25.833  14.393  -6.167  1.00  0.00     0.053 C 
BRANCH  18  19
HETATM   19  C   UNL     1     -25.778  15.355  -7.331  1.00  0.00    -0.027 C 
HETATM   20  C   UNL     1     -25.927  15.069  -8.640  1.00  0.00    -0.027 C 
BRANCH  20  21
HETATM   21  C   UNL     1     -26.240  13.723  -9.248  1.00  0.00     0.053 C 
BRANCH  21  22
HETATM   22  C   UNL     1     -26.310  13.816 -10.754  1.00  0.00    -0.027 C 
HETATM   23  C   UNL     1     -27.413  13.742 -11.525  1.00  0.00    -0.031 C 
BRANCH  23  24
HETATM   24  C   UNL     1     -28.826  13.528 -11.050  1.00  0.00     0.022 C 
HETATM   25  C   UNL     1     -29.768  13.135 -12.182  1.00  0.00     0.009 C 
ENDBRANCH  23  24
ENDBRANCH  21  22
ENDBRANCH  20  21
ENDBRANCH  18  19
ENDBRANCH  17  18
ENDBRANCH  15  16
ENDBRANCH  14  15
ENDBRANCH  12  13
ENDBRANCH  11  12
ENDBRANCH   9  10
ENDBRANCH   8   9
ENDBRANCH   6   7
ENDBRANCH   5   6
ENDBRANCH   3   5
ENDBRANCH   1   3
TORSDOF 15
ENDMDL
MODEL 15
REMARK VINA RESULT:      -4.2      5.197      9.479
REMARK  15 active torsions:
REMARK  status: ('A' for Active; 'I' for Inactive)
REMARK    1  A    between atoms: O_1  and  C_23 
REMARK    2  A    between atoms: C_3  and  C_7 
REMARK    3  A    between atoms: C_3  and  C_8 
REMARK    4  A    between atoms: C_4  and  C_10 
REMARK    5  A    between atoms: C_4  and  C_11 
REMARK    6  A    between atoms: C_5  and  C_12 
REMARK    7  A    between atoms: C_5  and  C_13 
REMARK    8  A    between atoms: C_6  and  C_15 
REMARK    9  A    between atoms: C_6  and  C_16 
REMARK   10  A    between atoms: C_7  and  C_23 
REMARK   11  A    between atoms: C_9  and  C_17 
REMARK   12  A    between atoms: C_9  and  C_18 
REMARK   13  A    between atoms: C_14  and  C_19 
REMARK   14  A    between atoms: C_14  and  C_20 
REMARK   15  A    between atoms: C_21  and  C_22 
ROOT
HETATM    1  O   UNL     1     -34.312 -11.329 -17.603  1.00  0.00    -0.776 OA
HETATM    2  H   UNL     1     -34.354 -12.043 -18.254  1.00  0.00     0.167 HD
ENDROOT
BRANCH   1   3
HETATM    3  C   UNL     1     -34.380 -10.033 -17.975  1.00  0.00     0.139 C 
HETATM    4  O   UNL     1     -34.262  -9.149 -17.138  1.00  0.00    -0.650 OA
BRANCH   3   5
HETATM    5  C   UNL     1     -34.597  -9.681 -19.419  1.00  0.00     0.113 C 
BRANCH   5   6
HETATM    6  C   UNL     1     -35.144  -8.256 -19.558  1.00  0.00     0.037 C 
BRANCH   6   7
HETATM    7  C   UNL     1     -34.424  -7.515 -20.660  1.00  0.00    -0.030 C 
HETATM    8  C   UNL     1     -34.830  -7.369 -21.940  1.00  0.00    -0.027 C 
BRANCH   8   9
HETATM    9  C   UNL     1     -36.095  -7.908 -22.573  1.00  0.00     0.053 C 
BRANCH   9  10
HETATM   10  C   UNL     1     -37.023  -6.784 -22.959  1.00  0.00    -0.027 C 
HETATM   11  C   UNL     1     -37.951  -6.224 -22.163  1.00  0.00    -0.027 C 
BRANCH  11  12
HETATM   12  C   UNL     1     -38.193  -6.578 -20.719  1.00  0.00     0.053 C 
BRANCH  12  13
HETATM   13  C   UNL     1     -37.673  -5.497 -19.805  1.00  0.00    -0.027 C 
HETATM   14  C   UNL     1     -37.663  -5.519 -18.459  1.00  0.00    -0.027 C 
BRANCH  14  15
HETATM   15  C   UNL     1     -38.217  -6.613 -17.586  1.00  0.00     0.053 C 
BRANCH  15  16
HETATM   16  C   UNL     1     -37.069  -7.278 -16.860  1.00  0.00    -0.027 C 
HETATM   17  C   UNL     1     -36.499  -6.908 -15.695  1.00  0.00    -0.027 C 
BRANCH  17  18
HETATM   18  C   UNL     1     -36.889  -5.744 -14.822  1.00  0.00     0.053 C 
BRANCH  18  19
HETATM   19  C   UNL     1     -38.014  -6.130 -13.890  1.00  0.00    -0.027 C 
HETATM   20  C   UNL     1     -37.996  -6.140 -12.541  1.00  0.00    -0.027 C 
BRANCH  20  21
HETATM   21  C   UNL     1     -36.861  -5.715 -11.643  1.00  0.00     0.053 C 
BRANCH  21  22
HETATM   22  C   UNL     1     -36.239  -6.910 -10.960  1.00  0.00    -0.027 C 
HETATM   23  C   UNL     1     -35.252  -7.697 -11.432  1.00  0.00    -0.031 C 
BRANCH  23  24
HETATM   24  C   UNL     1     -34.560  -7.566 -12.764  1.00  0.00     0.022 C 
HETATM   25  C   UNL     1     -34.542  -8.875 -13.543  1.00  0.00     0.009 C 
ENDBRANCH  23  24
ENDBRANCH  21  22
ENDBRANCH  20  21
ENDBRANCH  18  19
ENDBRANCH  17  18
ENDBRANCH  15  16
ENDBRANCH  14  15
ENDBRANCH  12  13
ENDBRANCH  11  12
ENDBRANCH   9  10
ENDBRANCH   8   9
ENDBRANCH   6   7
ENDBRANCH   5   6
ENDBRANCH   3   5
ENDBRANCH   1   3
TORSDOF 15
ENDMDL
MODEL 16
REMARK VINA RESULT:      -4.2     23.106     25.301
REMARK  15 active torsions:
REMARK  status: ('A' for Active; 'I' for Inactive)
REMARK    1  A    between atoms: O_1  and  C_23 
REMARK    2  A    between atoms: C_3  and  C_7 
REMARK    3  A    between atoms: C_3  and  C_8 
REMARK    4  A    between atoms: C_4  and  C_10 
REMARK    5  A    between atoms: C_4  and  C_11 
REMARK    6  A    between atoms: C_5  and  C_12 
REMARK    7  A    between atoms: C_5  and  C_13 
REMARK    8  A    between atoms: C_6  and  C_15 
REMARK    9  A    between atoms: C_6  and  C_16 
REMARK   10  A    between atoms: C_7  and  C_23 
REMARK   11  A    between atoms: C_9  and  C_17 
REMARK   12  A    between atoms: C_9  and  C_18 
REMARK   13  A    between atoms: C_14  and  C_19 
REMARK   14  A    between atoms: C_14  and  C_20 
REMARK   15  A    between atoms: C_21  and  C_22 
ROOT
HETATM    1  O   UNL     1     -26.689  17.756 -12.182  1.00  0.00    -0.776 OA
HETATM    2  H   UNL     1     -26.373  17.563 -11.289  1.00  0.00     0.167 HD
ENDROOT
BRANCH   1   3
HETATM    3  C   UNL     1     -26.609  16.840 -13.171  1.00  0.00     0.139 C 
HETATM    4  O   UNL     1     -27.335  16.932 -14.151  1.00  0.00    -0.650 OA
BRANCH   3   5
HETATM    5  C   UNL     1     -25.623  15.712 -13.064  1.00  0.00     0.113 C 
BRANCH   5   6
HETATM    6  C   UNL     1     -25.886  14.873 -11.809  1.00  0.00     0.037 C 
BRANCH   6   7
HETATM    7  C   UNL     1     -26.610  13.596 -12.164  1.00  0.00    -0.030 C 
HETATM    8  C   UNL     1     -27.843  13.222 -11.760  1.00  0.00    -0.027 C 
BRANCH   8   9
HETATM    9  C   UNL     1     -28.789  13.988 -10.861  1.00  0.00     0.053 C 
BRANCH   9  10
HETATM   10  C   UNL     1     -29.392  15.161 -11.591  1.00  0.00    -0.027 C 
HETATM   11  C   UNL     1     -29.790  16.316 -11.028  1.00  0.00    -0.027 C 
BRANCH  11  12
HETATM   12  C   UNL     1     -29.653  16.671  -9.570  1.00  0.00     0.053 C 
BRANCH  12  13
HETATM   13  C   UNL     1     -28.949  17.995  -9.403  1.00  0.00    -0.027 C 
HETATM   14  C   UNL     1     -28.273  18.412  -8.316  1.00  0.00    -0.027 C 
BRANCH  14  15
HETATM   15  C   UNL     1     -28.122  17.659  -7.021  1.00  0.00     0.053 C 
BRANCH  15  16
HETATM   16  C   UNL     1     -26.653  17.380  -6.796  1.00  0.00    -0.027 C 
HETATM   17  C   UNL     1     -25.879  16.464  -7.412  1.00  0.00    -0.027 C 
BRANCH  17  18
HETATM   18  C   UNL     1     -26.294  15.505  -8.496  1.00  0.00     0.053 C 
BRANCH  18  19
HETATM   19  C   UNL     1     -26.372  14.095  -7.959  1.00  0.00    -0.027 C 
HETATM   20  C   UNL     1     -27.427  13.499  -7.367  1.00  0.00    -0.027 C 
BRANCH  20  21
HETATM   21  C   UNL     1     -28.800  14.087  -7.150  1.00  0.00     0.053 C 
BRANCH  21  22
HETATM   22  C   UNL     1     -29.392  13.604  -5.846  1.00  0.00    -0.027 C 
HETATM   23  C   UNL     1     -29.135  14.075  -4.610  1.00  0.00    -0.031 C 
BRANCH  23  24
HETATM   24  C   UNL     1     -28.178  15.183  -4.253  1.00  0.00     0.022 C 
HETATM   25  C   UNL     1     -26.773  14.669  -3.965  1.00  0.00     0.009 C 
ENDBRANCH  23  24
ENDBRANCH  21  22
ENDBRANCH  20  21
ENDBRANCH  18  19
ENDBRANCH  17  18
ENDBRANCH  15  16
ENDBRANCH  14  15
ENDBRANCH  12  13
ENDBRANCH  11  12
ENDBRANCH   9  10
ENDBRANCH   8   9
ENDBRANCH   6   7
ENDBRANCH   5   6
ENDBRANCH   3   5
ENDBRANCH   1   3
TORSDOF 15
ENDMDL
MODEL 17
REMARK VINA RESULT:      -4.2      3.525      7.830
REMARK  15 active torsions:
REMARK  status: ('A' for Active; 'I' for Inactive)
REMARK    1  A    between atoms: O_1  and  C_23 
REMARK    2  A    between atoms: C_3  and  C_7 
REMARK    3  A    between atoms: C_3  and  C_8 
REMARK    4  A    between atoms: C_4  and  C_10 
REMARK    5  A    between atoms: C_4  and  C_11 
REMARK    6  A    between atoms: C_5  and  C_12 
REMARK    7  A    between atoms: C_5  and  C_13 
REMARK    8  A    between atoms: C_6  and  C_15 
REMARK    9  A    between atoms: C_6  and  C_16 
REMARK   10  A    between atoms: C_7  and  C_23 
REMARK   11  A    between atoms: C_9  and  C_17 
REMARK   12  A    between atoms: C_9  and  C_18 
REMARK   13  A    between atoms: C_14  and  C_19 
REMARK   14  A    between atoms: C_14  and  C_20 
REMARK   15  A    between atoms: C_21  and  C_22 
ROOT
HETATM    1  O   UNL     1     -35.563 -10.060 -12.914  1.00  0.00    -0.776 OA
HETATM    2  H   UNL     1     -35.559 -11.027 -12.927  1.00  0.00     0.167 HD
ENDROOT
BRANCH   1   3
HETATM    3  C   UNL     1     -34.694  -9.343 -13.658  1.00  0.00     0.139 C 
HETATM    4  O   UNL     1     -34.017  -9.896 -14.513  1.00  0.00    -0.650 OA
BRANCH   3   5
HETATM    5  C   UNL     1     -34.564  -7.863 -13.434  1.00  0.00     0.113 C 
BRANCH   5   6
HETATM    6  C   UNL     1     -35.372  -7.422 -12.208  1.00  0.00     0.037 C 
BRANCH   6   7
HETATM    7  C   UNL     1     -34.476  -7.292 -11.000  1.00  0.00    -0.030 C 
HETATM    8  C   UNL     1     -34.673  -7.836  -9.780  1.00  0.00    -0.027 C 
BRANCH   8   9
HETATM    9  C   UNL     1     -35.831  -8.702  -9.333  1.00  0.00     0.053 C 
BRANCH   9  10
HETATM   10  C   UNL     1     -35.469 -10.164  -9.408  1.00  0.00    -0.027 C 
HETATM   11  C   UNL     1     -34.813 -10.860  -8.462  1.00  0.00    -0.027 C 
BRANCH  11  12
HETATM   12  C   UNL     1     -34.372 -10.319  -7.127  1.00  0.00     0.053 C 
BRANCH  12  13
HETATM   13  C   UNL     1     -35.429 -10.550  -6.076  1.00  0.00    -0.027 C 
HETATM   14  C   UNL     1     -36.199  -9.613  -5.492  1.00  0.00    -0.027 C 
BRANCH  14  15
HETATM   15  C   UNL     1     -36.127  -8.128  -5.734  1.00  0.00     0.053 C 
BRANCH  15  16
HETATM   16  C   UNL     1     -36.449  -7.414  -4.440  1.00  0.00    -0.027 C 
HETATM   17  C   UNL     1     -37.450  -6.543  -4.202  1.00  0.00    -0.027 C 
BRANCH  17  18
HETATM   18  C   UNL     1     -38.507  -6.084  -5.171  1.00  0.00     0.053 C 
BRANCH  18  19
HETATM   19  C   UNL     1     -38.126  -4.759  -5.789  1.00  0.00    -0.027 C 
HETATM   20  C   UNL     1     -37.640  -4.540  -7.028  1.00  0.00    -0.027 C 
BRANCH  20  21
HETATM   21  C   UNL     1     -37.414  -5.566  -8.111  1.00  0.00     0.053 C 
BRANCH  21  22
HETATM   22  C   UNL     1     -37.702  -4.981  -9.474  1.00  0.00    -0.027 C 
HETATM   23  C   UNL     1     -38.232  -5.615 -10.538  1.00  0.00    -0.031 C 
BRANCH  23  24
HETATM   24  C   UNL     1     -38.639  -7.064 -10.608  1.00  0.00     0.022 C 
HETATM   25  C   UNL     1     -39.993  -7.321  -9.959  1.00  0.00     0.009 C 
ENDBRANCH  23  24
ENDBRANCH  21  22
ENDBRANCH  20  21
ENDBRANCH  18  19
ENDBRANCH  17  18
ENDBRANCH  15  16
ENDBRANCH  14  15
ENDBRANCH  12  13
ENDBRANCH  11  12
ENDBRANCH   9  10
ENDBRANCH   8   9
ENDBRANCH   6   7
ENDBRANCH   5   6
ENDBRANCH   3   5
ENDBRANCH   1   3
TORSDOF 15
ENDMDL
MODEL 18
REMARK VINA RESULT:      -4.2      2.402      4.213
REMARK  15 active torsions:
REMARK  status: ('A' for Active; 'I' for Inactive)
REMARK    1  A    between atoms: O_1  and  C_23 
REMARK    2  A    between atoms: C_3  and  C_7 
REMARK    3  A    between atoms: C_3  and  C_8 
REMARK    4  A    between atoms: C_4  and  C_10 
REMARK    5  A    between atoms: C_4  and  C_11 
REMARK    6  A    between atoms: C_5  and  C_12 
REMARK    7  A    between atoms: C_5  and  C_13 
REMARK    8  A    between atoms: C_6  and  C_15 
REMARK    9  A    between atoms: C_6  and  C_16 
REMARK   10  A    between atoms: C_7  and  C_23 
REMARK   11  A    between atoms: C_9  and  C_17 
REMARK   12  A    between atoms: C_9  and  C_18 
REMARK   13  A    between atoms: C_14  and  C_19 
REMARK   14  A    between atoms: C_14  and  C_20 
REMARK   15  A    between atoms: C_21  and  C_22 
ROOT
HETATM    1  O   UNL     1     -37.911  -4.079  -4.225  1.00  0.00    -0.776 OA
HETATM    2  H   UNL     1     -38.743  -3.674  -4.507  1.00  0.00     0.167 HD
ENDROOT
BRANCH   1   3
HETATM    3  C   UNL     1     -37.506  -5.269  -4.717  1.00  0.00     0.139 C 
HETATM    4  O   UNL     1     -37.661  -6.289  -4.061  1.00  0.00    -0.650 OA
BRANCH   3   5
HETATM    5  C   UNL     1     -36.866  -5.336  -6.075  1.00  0.00     0.113 C 
BRANCH   5   6
HETATM    6  C   UNL     1     -35.880  -6.506  -6.158  1.00  0.00     0.037 C 
BRANCH   6   7
HETATM    7  C   UNL     1     -35.956  -7.172  -7.512  1.00  0.00    -0.030 C 
HETATM    8  C   UNL     1     -36.566  -8.339  -7.810  1.00  0.00    -0.027 C 
BRANCH   8   9
HETATM    9  C   UNL     1     -37.315  -9.255  -6.866  1.00  0.00     0.053 C 
BRANCH   9  10
HETATM   10  C   UNL     1     -38.623  -8.636  -6.443  1.00  0.00    -0.027 C 
HETATM   11  C   UNL     1     -39.811  -8.820  -7.049  1.00  0.00    -0.027 C 
BRANCH  11  12
HETATM   12  C   UNL     1     -40.060  -9.726  -8.226  1.00  0.00     0.053 C 
BRANCH  12  13
HETATM   13  C   UNL     1     -40.977  -9.067  -9.227  1.00  0.00    -0.027 C 
HETATM   14  C   UNL     1     -40.612  -8.261 -10.241  1.00  0.00    -0.027 C 
BRANCH  14  15
HETATM   15  C   UNL     1     -39.211  -7.810 -10.555  1.00  0.00     0.053 C 
BRANCH  15  16
HETATM   16  C   UNL     1     -38.938  -6.527  -9.801  1.00  0.00    -0.027 C 
HETATM   17  C   UNL     1     -38.079  -5.540 -10.128  1.00  0.00    -0.027 C 
BRANCH  17  18
HETATM   18  C   UNL     1     -37.192  -5.472 -11.343  1.00  0.00     0.053 C 
BRANCH  18  19
HETATM   19  C   UNL     1     -35.827  -6.045 -11.040  1.00  0.00    -0.027 C 
HETATM   20  C   UNL     1     -35.234  -7.107 -11.622  1.00  0.00    -0.027 C 
BRANCH  20  21
HETATM   21  C   UNL     1     -35.776  -7.943 -12.756  1.00  0.00     0.053 C 
BRANCH  21  22
HETATM   22  C   UNL     1     -34.653  -8.600 -13.524  1.00  0.00    -0.027 C 
HETATM   23  C   UNL     1     -34.176  -8.246 -14.734  1.00  0.00    -0.031 C 
BRANCH  23  24
HETATM   24  C   UNL     1     -34.676  -7.120 -15.601  1.00  0.00     0.022 C 
HETATM   25  C   UNL     1     -35.842  -7.540 -16.487  1.00  0.00     0.009 C 
ENDBRANCH  23  24
ENDBRANCH  21  22
ENDBRANCH  20  21
ENDBRANCH  18  19
ENDBRANCH  17  18
ENDBRANCH  15  16
ENDBRANCH  14  15
ENDBRANCH  12  13
ENDBRANCH  11  12
ENDBRANCH   9  10
ENDBRANCH   8   9
ENDBRANCH   6   7
ENDBRANCH   5   6
ENDBRANCH   3   5
ENDBRANCH   1   3
TORSDOF 15
ENDMDL
MODEL 19
REMARK VINA RESULT:      -4.2      3.075      5.194
REMARK  15 active torsions:
REMARK  status: ('A' for Active; 'I' for Inactive)
REMARK    1  A    between atoms: O_1  and  C_23 
REMARK    2  A    between atoms: C_3  and  C_7 
REMARK    3  A    between atoms: C_3  and  C_8 
REMARK    4  A    between atoms: C_4  and  C_10 
REMARK    5  A    between atoms: C_4  and  C_11 
REMARK    6  A    between atoms: C_5  and  C_12 
REMARK    7  A    between atoms: C_5  and  C_13 
REMARK    8  A    between atoms: C_6  and  C_15 
REMARK    9  A    between atoms: C_6  and  C_16 
REMARK   10  A    between atoms: C_7  and  C_23 
REMARK   11  A    between atoms: C_9  and  C_17 
REMARK   12  A    between atoms: C_9  and  C_18 
REMARK   13  A    between atoms: C_14  and  C_19 
REMARK   14  A    between atoms: C_14  and  C_20 
REMARK   15  A    between atoms: C_21  and  C_22 
ROOT
HETATM    1  O   UNL     1     -37.829 -12.922  -9.155  1.00  0.00    -0.776 OA
HETATM    2  H   UNL     1     -37.283 -12.920  -8.357  1.00  0.00     0.167 HD
ENDROOT
BRANCH   1   3
HETATM    3  C   UNL     1     -37.296 -13.161 -10.372  1.00  0.00     0.139 C 
HETATM    4  O   UNL     1     -37.504 -14.227 -10.934  1.00  0.00    -0.650 OA
BRANCH   3   5
HETATM    5  C   UNL     1     -36.450 -12.111 -11.035  1.00  0.00     0.113 C 
BRANCH   5   6
HETATM    6  C   UNL     1     -36.241 -10.909 -10.106  1.00  0.00     0.037 C 
BRANCH   6   7
HETATM    7  C   UNL     1     -34.769 -10.633  -9.916  1.00  0.00    -0.030 C 
HETATM    8  C   UNL     1     -34.181  -9.427  -9.769  1.00  0.00    -0.027 C 
BRANCH   8   9
HETATM    9  C   UNL     1     -34.852  -8.070  -9.762  1.00  0.00     0.053 C 
BRANCH   9  10
HETATM   10  C   UNL     1     -35.066  -7.585  -8.350  1.00  0.00    -0.027 C 
HETATM   11  C   UNL     1     -36.212  -7.083  -7.857  1.00  0.00    -0.027 C 
BRANCH  11  12
HETATM   12  C   UNL     1     -37.512  -6.968  -8.611  1.00  0.00     0.053 C 
BRANCH  12  13
HETATM   13  C   UNL     1     -37.881  -5.522  -8.830  1.00  0.00    -0.027 C 
HETATM   14  C   UNL     1     -37.529  -4.754  -9.878  1.00  0.00    -0.027 C 
BRANCH  14  15
HETATM   15  C   UNL     1     -36.650  -5.169 -11.027  1.00  0.00     0.053 C 
BRANCH  15  16
HETATM   16  C   UNL     1     -37.530  -5.487 -12.216  1.00  0.00    -0.027 C 
HETATM   17  C   UNL     1     -37.949  -6.698 -12.636  1.00  0.00    -0.027 C 
BRANCH  17  18
HETATM   18  C   UNL     1     -37.653  -8.032 -12.004  1.00  0.00     0.053 C 
BRANCH  18  19
HETATM   19  C   UNL     1     -37.301  -9.055 -13.059  1.00  0.00    -0.027 C 
HETATM   20  C   UNL     1     -36.155  -9.145 -13.764  1.00  0.00    -0.027 C 
BRANCH  20  21
HETATM   21  C   UNL     1     -34.930  -8.275 -13.626  1.00  0.00     0.053 C 
BRANCH  21  22
HETATM   22  C   UNL     1     -34.346  -7.948 -14.980  1.00  0.00    -0.027 C 
HETATM   23  C   UNL     1     -34.804  -7.046 -15.870  1.00  0.00    -0.031 C 
BRANCH  23  24
HETATM   24  C   UNL     1     -36.021  -6.171 -15.715  1.00  0.00     0.022 C 
HETATM   25  C   UNL     1     -37.225  -6.708 -16.478  1.00  0.00     0.009 C 
ENDBRANCH  23  24
ENDBRANCH  21  22
ENDBRANCH  20  21
ENDBRANCH  18  19
ENDBRANCH  17  18
ENDBRANCH  15  16
ENDBRANCH  14  15
ENDBRANCH  12  13
ENDBRANCH  11  12
ENDBRANCH   9  10
ENDBRANCH   8   9
ENDBRANCH   6   7
ENDBRANCH   5   6
ENDBRANCH   3   5
ENDBRANCH   1   3
TORSDOF 15
ENDMDL
MODEL 20
REMARK VINA RESULT:      -4.1     23.672     25.576
REMARK  15 active torsions:
REMARK  status: ('A' for Active; 'I' for Inactive)
REMARK    1  A    between atoms: O_1  and  C_23 
REMARK    2  A    between atoms: C_3  and  C_7 
REMARK    3  A    between atoms: C_3  and  C_8 
REMARK    4  A    between atoms: C_4  and  C_10 
REMARK    5  A    between atoms: C_4  and  C_11 
REMARK    6  A    between atoms: C_5  and  C_12 
REMARK    7  A    between atoms: C_5  and  C_13 
REMARK    8  A    between atoms: C_6  and  C_15 
REMARK    9  A    between atoms: C_6  and  C_16 
REMARK   10  A    between atoms: C_7  and  C_23 
REMARK   11  A    between atoms: C_9  and  C_17 
REMARK   12  A    between atoms: C_9  and  C_18 
REMARK   13  A    between atoms: C_14  and  C_19 
REMARK   14  A    between atoms: C_14  and  C_20 
REMARK   15  A    between atoms: C_21  and  C_22 
ROOT
HETATM    1  O   UNL     1     -30.435  19.696 -15.479  1.00  0.00    -0.776 OA
HETATM    2  H   UNL     1     -30.743  19.071 -16.149  1.00  0.00     0.167 HD
ENDROOT
BRANCH   1   3
HETATM    3  C   UNL     1     -29.280  19.497 -14.809  1.00  0.00     0.139 C 
HETATM    4  O   UNL     1     -29.164  19.890 -13.657  1.00  0.00    -0.650 OA
BRANCH   3   5
HETATM    5  C   UNL     1     -28.140  18.787 -15.482  1.00  0.00     0.113 C 
BRANCH   5   6
HETATM    6  C   UNL     1     -28.643  17.583 -16.286  1.00  0.00     0.037 C 
BRANCH   6   7
HETATM    7  C   UNL     1     -28.305  17.741 -17.749  1.00  0.00    -0.030 C 
HETATM    8  C   UNL     1     -27.244  17.217 -18.399  1.00  0.00    -0.027 C 
BRANCH   8   9
HETATM    9  C   UNL     1     -26.145  16.351 -17.822  1.00  0.00     0.053 C 
BRANCH   9  10
HETATM   10  C   UNL     1     -26.190  14.963 -18.410  1.00  0.00    -0.027 C 
HETATM   11  C   UNL     1     -26.636  13.859 -17.784  1.00  0.00    -0.027 C 
BRANCH  11  12
HETATM   12  C   UNL     1     -27.227  13.818 -16.399  1.00  0.00     0.053 C 
BRANCH  12  13
HETATM   13  C   UNL     1     -26.157  13.569 -15.364  1.00  0.00    -0.027 C 
HETATM   14  C   UNL     1     -25.784  14.406 -14.378  1.00  0.00    -0.027 C 
BRANCH  14  15
HETATM   15  C   UNL     1     -26.328  15.789 -14.135  1.00  0.00     0.053 C 
BRANCH  15  16
HETATM   16  C   UNL     1     -25.736  16.319 -12.848  1.00  0.00    -0.027 C 
HETATM   17  C   UNL     1     -26.229  16.202 -11.599  1.00  0.00    -0.027 C 
BRANCH  17  18
HETATM   18  C   UNL     1     -27.490  15.492 -11.182  1.00  0.00     0.053 C 
BRANCH  18  19
HETATM   19  C   UNL     1     -27.320  13.995 -11.291  1.00  0.00    -0.027 C 
HETATM   20  C   UNL     1     -28.246  13.088 -11.665  1.00  0.00    -0.027 C 
BRANCH  20  21
HETATM   21  C   UNL     1     -29.659  13.364 -12.116  1.00  0.00     0.053 C 
BRANCH  21  22
HETATM   22  C   UNL     1     -29.695  13.722 -13.584  1.00  0.00    -0.027 C 
HETATM   23  C   UNL     1     -29.939  14.933 -14.122  1.00  0.00    -0.031 C 
BRANCH  23  24
HETATM   24  C   UNL     1     -30.250  16.202 -13.372  1.00  0.00     0.022 C 
HETATM   25  C   UNL     1     -31.744  16.397 -13.150  1.00  0.00     0.009 C 
ENDBRANCH  23  24
ENDBRANCH  21  22
ENDBRANCH  20  21
ENDBRANCH  18  19
ENDBRANCH  17  18
ENDBRANCH  15  16
ENDBRANCH  14  15
ENDBRANCH  12  13
ENDBRANCH  11  12
ENDBRANCH   9  10
ENDBRANCH   8   9
ENDBRANCH   6   7
ENDBRANCH   5   6
ENDBRANCH   3   5
ENDBRANCH   1   3
TORSDOF 15
ENDMDL
