MODEL 1
REMARK VINA RESULT:      -5.8      0.000      0.000
REMARK  15 active torsions:
REMARK  status: ('A' for Active; 'I' for Inactive)
REMARK    1  A    between atoms: O_1  and  C_22 
REMARK    2  A    between atoms: C_3  and  C_4 
REMARK    3  A    between atoms: C_3  and  C_5 
REMARK    4  A    between atoms: C_4  and  C_6 
REMARK    5  A    between atoms: C_5  and  C_7 
REMARK    6  A    between atoms: C_9  and  C_10 
REMARK    7  A    between atoms: C_9  and  C_13 
REMARK    8  A    between atoms: C_10  and  C_14 
REMARK    9  A    between atoms: C_11  and  C_12 
REMARK   10  A    between atoms: C_12  and  C_16 
REMARK   11  A    between atoms: C_13  and  C_22 
REMARK   12  A    between atoms: C_15  and  C_17 
REMARK   13  A    between atoms: C_15  and  C_20 
REMARK   14  A    between atoms: C_18  and  C_19 
REMARK   15  A    between atoms: C_18  and  C_21 
ROOT
HETATM    1  O   UNL     1      -1.575  -8.352 -15.090  1.00  0.00    -0.776 OA
HETATM    2  H   UNL     1      -1.127  -9.194 -14.928  1.00  0.00     0.167 HD
ENDROOT
BRANCH   1   3
HETATM    3  C   UNL     1      -1.907  -7.526 -14.075  1.00  0.00     0.139 C 
HETATM    4  O   UNL     1      -1.518  -6.367 -14.076  1.00  0.00    -0.650 OA
BRANCH   3   5
HETATM    5  C   UNL     1      -2.747  -8.039 -12.938  1.00  0.00     0.110 C 
BRANCH   5   6
HETATM    6  C   UNL     1      -1.938  -8.210 -11.645  1.00  0.00     0.014 C 
BRANCH   6   7
HETATM    7  C   UNL     1      -2.241  -7.119 -10.609  1.00  0.00     0.027 C 
BRANCH   7   8
HETATM    8  C   UNL     1      -3.581  -7.384  -9.970  1.00  0.00    -0.030 C 
HETATM    9  C   UNL     1      -3.770  -8.021  -8.798  1.00  0.00    -0.027 C 
BRANCH   9  10
HETATM   10  C   UNL     1      -2.677  -8.558  -7.909  1.00  0.00     0.053 C 
BRANCH  10  11
HETATM   11  C   UNL     1      -2.027  -7.451  -7.109  1.00  0.00    -0.027 C 
HETATM   12  C   UNL     1      -2.281  -7.106  -5.830  1.00  0.00    -0.027 C 
BRANCH  12  13
HETATM   13  C   UNL     1      -3.262  -7.760  -4.891  1.00  0.00     0.053 C 
BRANCH  13  14
HETATM   14  C   UNL     1      -2.557  -8.193  -3.627  1.00  0.00    -0.027 C 
HETATM   15  C   UNL     1      -3.163  -8.733  -2.549  1.00  0.00    -0.027 C 
BRANCH  15  16
HETATM   16  C   UNL     1      -4.646  -8.971  -2.434  1.00  0.00     0.053 C 
BRANCH  16  17
HETATM   17  C   UNL     1      -4.944 -10.351  -1.904  1.00  0.00    -0.027 C 
HETATM   18  C   UNL     1      -5.873 -10.610  -0.967  1.00  0.00    -0.030 C 
BRANCH  18  19
HETATM   19  C   UNL     1      -6.740  -9.569  -0.304  1.00  0.00     0.027 C 
BRANCH  19  20
HETATM   20  C   UNL     1      -8.122  -9.552  -0.966  1.00  0.00     0.004 C 
BRANCH  20  21
HETATM   21  C   UNL     1      -9.017  -8.471  -0.352  1.00  0.00    -0.000 C 
BRANCH  21  22
HETATM   22  C   UNL     1      -8.640  -7.083  -0.884  1.00  0.00    -0.005 C 
HETATM   23  C   UNL     1      -8.025  -6.221   0.214  1.00  0.00     0.005 C 
ENDBRANCH  21  22
ENDBRANCH  20  21
ENDBRANCH  19  20
ENDBRANCH  18  19
ENDBRANCH  16  17
ENDBRANCH  15  16
ENDBRANCH  13  14
ENDBRANCH  12  13
ENDBRANCH  10  11
ENDBRANCH   9  10
ENDBRANCH   7   8
ENDBRANCH   6   7
ENDBRANCH   5   6
ENDBRANCH   3   5
ENDBRANCH   1   3
TORSDOF 15
ENDMDL
MODEL 2
REMARK VINA RESULT:      -5.5      1.163      2.223
REMARK  15 active torsions:
REMARK  status: ('A' for Active; 'I' for Inactive)
REMARK    1  A    between atoms: O_1  and  C_22 
REMARK    2  A    between atoms: C_3  and  C_4 
REMARK    3  A    between atoms: C_3  and  C_5 
REMARK    4  A    between atoms: C_4  and  C_6 
REMARK    5  A    between atoms: C_5  and  C_7 
REMARK    6  A    between atoms: C_9  and  C_10 
REMARK    7  A    between atoms: C_9  and  C_13 
REMARK    8  A    between atoms: C_10  and  C_14 
REMARK    9  A    between atoms: C_11  and  C_12 
REMARK   10  A    between atoms: C_12  and  C_16 
REMARK   11  A    between atoms: C_13  and  C_22 
REMARK   12  A    between atoms: C_15  and  C_17 
REMARK   13  A    between atoms: C_15  and  C_20 
REMARK   14  A    between atoms: C_18  and  C_19 
REMARK   15  A    between atoms: C_18  and  C_21 
ROOT
HETATM    1  O   UNL     1      -1.957  -7.984 -16.262  1.00  0.00    -0.776 OA
HETATM    2  H   UNL     1      -1.702  -8.894 -16.055  1.00  0.00     0.167 HD
ENDROOT
BRANCH   1   3
HETATM    3  C   UNL     1      -2.075  -7.049 -15.295  1.00  0.00     0.139 C 
HETATM    4  O   UNL     1      -1.597  -5.936 -15.457  1.00  0.00    -0.650 OA
BRANCH   3   5
HETATM    5  C   UNL     1      -2.786  -7.385 -14.013  1.00  0.00     0.110 C 
BRANCH   5   6
HETATM    6  C   UNL     1      -2.314  -8.719 -13.416  1.00  0.00     0.014 C 
BRANCH   6   7
HETATM    7  C   UNL     1      -1.898  -8.593 -11.945  1.00  0.00     0.027 C 
BRANCH   7   8
HETATM    8  C   UNL     1      -2.160  -7.189 -11.461  1.00  0.00    -0.030 C 
HETATM    9  C   UNL     1      -2.814  -6.868 -10.329  1.00  0.00    -0.027 C 
BRANCH   9  10
HETATM   10  C   UNL     1      -3.379  -7.852  -9.336  1.00  0.00     0.053 C 
BRANCH  10  11
HETATM   11  C   UNL     1      -2.289  -8.441  -8.468  1.00  0.00    -0.027 C 
HETATM   12  C   UNL     1      -2.118  -8.275  -7.140  1.00  0.00    -0.027 C 
BRANCH  12  13
HETATM   13  C   UNL     1      -2.990  -7.476  -6.205  1.00  0.00     0.053 C 
BRANCH  13  14
HETATM   14  C   UNL     1      -2.136  -6.773  -5.176  1.00  0.00    -0.027 C 
HETATM   15  C   UNL     1      -1.861  -7.248  -3.945  1.00  0.00    -0.027 C 
BRANCH  15  16
HETATM   16  C   UNL     1      -2.379  -8.553  -3.398  1.00  0.00     0.053 C 
BRANCH  16  17
HETATM   17  C   UNL     1      -2.640  -8.466  -1.915  1.00  0.00    -0.027 C 
HETATM   18  C   UNL     1      -3.701  -9.024  -1.306  1.00  0.00    -0.030 C 
BRANCH  18  19
HETATM   19  C   UNL     1      -4.784  -9.803  -2.008  1.00  0.00     0.027 C 
BRANCH  19  20
HETATM   20  C   UNL     1      -5.600 -10.593  -0.980  1.00  0.00     0.004 C 
BRANCH  20  21
HETATM   21  C   UNL     1      -6.482  -9.664  -0.139  1.00  0.00    -0.000 C 
BRANCH  21  22
HETATM   22  C   UNL     1      -7.499  -8.930  -1.022  1.00  0.00    -0.005 C 
HETATM   23  C   UNL     1      -8.816  -9.698  -1.099  1.00  0.00     0.005 C 
ENDBRANCH  21  22
ENDBRANCH  20  21
ENDBRANCH  19  20
ENDBRANCH  18  19
ENDBRANCH  16  17
ENDBRANCH  15  16
ENDBRANCH  13  14
ENDBRANCH  12  13
ENDBRANCH  10  11
ENDBRANCH   9  10
ENDBRANCH   7   8
ENDBRANCH   6   7
ENDBRANCH   5   6
ENDBRANCH   3   5
ENDBRANCH   1   3
TORSDOF 15
ENDMDL
MODEL 3
REMARK VINA RESULT:      -5.4      1.953      3.297
REMARK  15 active torsions:
REMARK  status: ('A' for Active; 'I' for Inactive)
REMARK    1  A    between atoms: O_1  and  C_22 
REMARK    2  A    between atoms: C_3  and  C_4 
REMARK    3  A    between atoms: C_3  and  C_5 
REMARK    4  A    between atoms: C_4  and  C_6 
REMARK    5  A    between atoms: C_5  and  C_7 
REMARK    6  A    between atoms: C_9  and  C_10 
REMARK    7  A    between atoms: C_9  and  C_13 
REMARK    8  A    between atoms: C_10  and  C_14 
REMARK    9  A    between atoms: C_11  and  C_12 
REMARK   10  A    between atoms: C_12  and  C_16 
REMARK   11  A    between atoms: C_13  and  C_22 
REMARK   12  A    between atoms: C_15  and  C_17 
REMARK   13  A    between atoms: C_15  and  C_20 
REMARK   14  A    between atoms: C_18  and  C_19 
REMARK   15  A    between atoms: C_18  and  C_21 
ROOT
HETATM    1  O   UNL     1      -1.969  -8.052 -16.173  1.00  0.00    -0.776 OA
HETATM    2  H   UNL     1      -1.682  -8.953 -15.968  1.00  0.00     0.167 HD
ENDROOT
BRANCH   1   3
HETATM    3  C   UNL     1      -2.191  -7.146 -15.197  1.00  0.00     0.139 C 
HETATM    4  O   UNL     1      -1.777  -6.002 -15.318  1.00  0.00    -0.650 OA
BRANCH   3   5
HETATM    5  C   UNL     1      -2.938  -7.551 -13.957  1.00  0.00     0.110 C 
BRANCH   5   6
HETATM    6  C   UNL     1      -2.282  -8.740 -13.242  1.00  0.00     0.014 C 
BRANCH   6   7
HETATM    7  C   UNL     1      -1.954  -8.440 -11.773  1.00  0.00     0.027 C 
BRANCH   7   8
HETATM    8  C   UNL     1      -2.666  -7.183 -11.341  1.00  0.00    -0.030 C 
HETATM    9  C   UNL     1      -3.352  -7.036 -10.192  1.00  0.00    -0.027 C 
BRANCH   9  10
HETATM   10  C   UNL     1      -3.510  -8.091  -9.126  1.00  0.00     0.053 C 
BRANCH  10  11
HETATM   11  C   UNL     1      -2.204  -8.342  -8.405  1.00  0.00    -0.027 C 
HETATM   12  C   UNL     1      -1.942  -8.161  -7.095  1.00  0.00    -0.027 C 
BRANCH  12  13
HETATM   13  C   UNL     1      -2.902  -7.683  -6.035  1.00  0.00     0.053 C 
BRANCH  13  14
HETATM   14  C   UNL     1      -2.138  -7.082  -4.878  1.00  0.00    -0.027 C 
HETATM   15  C   UNL     1      -2.132  -7.568  -3.620  1.00  0.00    -0.027 C 
BRANCH  15  16
HETATM   16  C   UNL     1      -2.904  -8.781  -3.169  1.00  0.00     0.053 C 
BRANCH  16  17
HETATM   17  C   UNL     1      -4.371  -8.472  -3.004  1.00  0.00    -0.027 C 
HETATM   18  C   UNL     1      -5.152  -9.025  -2.059  1.00  0.00    -0.030 C 
BRANCH  18  19
HETATM   19  C   UNL     1      -4.686 -10.037  -1.042  1.00  0.00     0.027 C 
BRANCH  19  20
HETATM   20  C   UNL     1      -5.541 -11.303  -1.147  1.00  0.00     0.004 C 
BRANCH  20  21
HETATM   21  C   UNL     1      -4.667 -12.562  -1.182  1.00  0.00    -0.000 C 
BRANCH  21  22
HETATM   22  C   UNL     1      -4.864 -13.399   0.088  1.00  0.00    -0.005 C 
HETATM   23  C   UNL     1      -4.680 -14.886  -0.199  1.00  0.00     0.005 C 
ENDBRANCH  21  22
ENDBRANCH  20  21
ENDBRANCH  19  20
ENDBRANCH  18  19
ENDBRANCH  16  17
ENDBRANCH  15  16
ENDBRANCH  13  14
ENDBRANCH  12  13
ENDBRANCH  10  11
ENDBRANCH   9  10
ENDBRANCH   7   8
ENDBRANCH   6   7
ENDBRANCH   5   6
ENDBRANCH   3   5
ENDBRANCH   1   3
TORSDOF 15
ENDMDL
MODEL 4
REMARK VINA RESULT:      -5.2     30.943     34.199
REMARK  15 active torsions:
REMARK  status: ('A' for Active; 'I' for Inactive)
REMARK    1  A    between atoms: O_1  and  C_22 
REMARK    2  A    between atoms: C_3  and  C_4 
REMARK    3  A    between atoms: C_3  and  C_5 
REMARK    4  A    between atoms: C_4  and  C_6 
REMARK    5  A    between atoms: C_5  and  C_7 
REMARK    6  A    between atoms: C_9  and  C_10 
REMARK    7  A    between atoms: C_9  and  C_13 
REMARK    8  A    between atoms: C_10  and  C_14 
REMARK    9  A    between atoms: C_11  and  C_12 
REMARK   10  A    between atoms: C_12  and  C_16 
REMARK   11  A    between atoms: C_13  and  C_22 
REMARK   12  A    between atoms: C_15  and  C_17 
REMARK   13  A    between atoms: C_15  and  C_20 
REMARK   14  A    between atoms: C_18  and  C_19 
REMARK   15  A    between atoms: C_18  and  C_21 
ROOT
HETATM    1  O   UNL     1     -33.128  -8.527  -9.146  1.00  0.00    -0.776 OA
HETATM    2  H   UNL     1     -32.629  -7.953  -8.548  1.00  0.00     0.167 HD
ENDROOT
BRANCH   1   3
HETATM    3  C   UNL     1     -34.181  -8.062  -9.851  1.00  0.00     0.139 C 
HETATM    4  O   UNL     1     -33.998  -7.384 -10.851  1.00  0.00    -0.650 OA
BRANCH   3   5
HETATM    5  C   UNL     1     -35.581  -8.371  -9.394  1.00  0.00     0.110 C 
BRANCH   5   6
HETATM    6  C   UNL     1     -36.079  -7.385  -8.329  1.00  0.00     0.014 C 
BRANCH   6   7
HETATM    7  C   UNL     1     -37.488  -6.857  -8.624  1.00  0.00     0.027 C 
BRANCH   7   8
HETATM    8  C   UNL     1     -37.474  -5.349  -8.636  1.00  0.00    -0.030 C 
HETATM    9  C   UNL     1     -37.730  -4.578  -9.709  1.00  0.00    -0.027 C 
BRANCH   9  10
HETATM   10  C   UNL     1     -38.098  -5.083 -11.081  1.00  0.00     0.053 C 
BRANCH  10  11
HETATM   11  C   UNL     1     -36.925  -5.770 -11.746  1.00  0.00    -0.027 C 
HETATM   12  C   UNL     1     -36.908  -6.989 -12.323  1.00  0.00    -0.027 C 
BRANCH  12  13
HETATM   13  C   UNL     1     -38.065  -7.946 -12.458  1.00  0.00     0.053 C 
BRANCH  13  14
HETATM   14  C   UNL     1     -38.048  -8.588 -13.825  1.00  0.00    -0.027 C 
HETATM   15  C   UNL     1     -38.512  -8.014 -14.954  1.00  0.00    -0.027 C 
BRANCH  15  16
HETATM   16  C   UNL     1     -39.136  -6.645 -15.022  1.00  0.00     0.053 C 
BRANCH  16  17
HETATM   17  C   UNL     1     -38.104  -5.581 -15.304  1.00  0.00    -0.027 C 
HETATM   18  C   UNL     1     -37.303  -5.580 -16.383  1.00  0.00    -0.030 C 
BRANCH  18  19
HETATM   19  C   UNL     1     -37.307  -6.638 -17.458  1.00  0.00     0.027 C 
BRANCH  19  20
HETATM   20  C   UNL     1     -35.882  -7.157 -17.674  1.00  0.00     0.004 C 
BRANCH  20  21
HETATM   21  C   UNL     1     -35.030  -6.982 -16.413  1.00  0.00    -0.000 C 
BRANCH  21  22
HETATM   22  C   UNL     1     -34.822  -8.324 -15.702  1.00  0.00    -0.005 C 
HETATM   23  C   UNL     1     -34.196  -8.128 -14.325  1.00  0.00     0.005 C 
ENDBRANCH  21  22
ENDBRANCH  20  21
ENDBRANCH  19  20
ENDBRANCH  18  19
ENDBRANCH  16  17
ENDBRANCH  15  16
ENDBRANCH  13  14
ENDBRANCH  12  13
ENDBRANCH  10  11
ENDBRANCH   9  10
ENDBRANCH   7   8
ENDBRANCH   6   7
ENDBRANCH   5   6
ENDBRANCH   3   5
ENDBRANCH   1   3
TORSDOF 15
ENDMDL
MODEL 5
REMARK VINA RESULT:      -5.2     31.934     34.923
REMARK  15 active torsions:
REMARK  status: ('A' for Active; 'I' for Inactive)
REMARK    1  A    between atoms: O_1  and  C_22 
REMARK    2  A    between atoms: C_3  and  C_4 
REMARK    3  A    between atoms: C_3  and  C_5 
REMARK    4  A    between atoms: C_4  and  C_6 
REMARK    5  A    between atoms: C_5  and  C_7 
REMARK    6  A    between atoms: C_9  and  C_10 
REMARK    7  A    between atoms: C_9  and  C_13 
REMARK    8  A    between atoms: C_10  and  C_14 
REMARK    9  A    between atoms: C_11  and  C_12 
REMARK   10  A    between atoms: C_12  and  C_16 
REMARK   11  A    between atoms: C_13  and  C_22 
REMARK   12  A    between atoms: C_15  and  C_17 
REMARK   13  A    between atoms: C_15  and  C_20 
REMARK   14  A    between atoms: C_18  and  C_19 
REMARK   15  A    between atoms: C_18  and  C_21 
ROOT
HETATM    1  O   UNL     1     -38.996 -10.061 -15.653  1.00  0.00    -0.776 OA
HETATM    2  H   UNL     1     -38.204 -10.161 -15.106  1.00  0.00     0.167 HD
ENDROOT
BRANCH   1   3
HETATM    3  C   UNL     1     -39.962  -9.174 -15.334  1.00  0.00     0.139 C 
HETATM    4  O   UNL     1     -40.505  -8.518 -16.212  1.00  0.00    -0.650 OA
BRANCH   3   5
HETATM    5  C   UNL     1     -40.361  -8.986 -13.896  1.00  0.00     0.110 C 
BRANCH   5   6
HETATM    6  C   UNL     1     -39.405  -8.050 -13.143  1.00  0.00     0.014 C 
BRANCH   6   7
HETATM    7  C   UNL     1     -38.960  -8.621 -11.791  1.00  0.00     0.027 C 
BRANCH   7   8
HETATM    8  C   UNL     1     -39.727  -7.950 -10.679  1.00  0.00    -0.030 C 
HETATM    9  C   UNL     1     -39.249  -6.971  -9.888  1.00  0.00    -0.027 C 
BRANCH   9  10
HETATM   10  C   UNL     1     -37.876  -6.357  -9.988  1.00  0.00     0.053 C 
BRANCH  10  11
HETATM   11  C   UNL     1     -37.949  -4.926 -10.473  1.00  0.00    -0.027 C 
HETATM   12  C   UNL     1     -37.696  -4.466 -11.715  1.00  0.00    -0.027 C 
BRANCH  12  13
HETATM   13  C   UNL     1     -37.298  -5.280 -12.920  1.00  0.00     0.053 C 
BRANCH  13  14
HETATM   14  C   UNL     1     -37.883  -4.670 -14.172  1.00  0.00    -0.027 C 
HETATM   15  C   UNL     1     -37.821  -5.219 -15.403  1.00  0.00    -0.027 C 
BRANCH  15  16
HETATM   16  C   UNL     1     -37.140  -6.525 -15.721  1.00  0.00     0.053 C 
BRANCH  16  17
HETATM   17  C   UNL     1     -35.783  -6.304 -16.340  1.00  0.00    -0.027 C 
HETATM   18  C   UNL     1     -34.750  -7.154 -16.204  1.00  0.00    -0.030 C 
BRANCH  18  19
HETATM   19  C   UNL     1     -34.789  -8.435 -15.411  1.00  0.00     0.027 C 
BRANCH  19  20
HETATM   20  C   UNL     1     -34.372  -8.156 -13.963  1.00  0.00     0.004 C 
BRANCH  20  21
HETATM   21  C   UNL     1     -35.534  -8.403 -12.994  1.00  0.00    -0.000 C 
BRANCH  21  22
HETATM   22  C   UNL     1     -35.048  -8.375 -11.540  1.00  0.00    -0.005 C 
HETATM   23  C   UNL     1     -34.444  -7.020 -11.186  1.00  0.00     0.005 C 
ENDBRANCH  21  22
ENDBRANCH  20  21
ENDBRANCH  19  20
ENDBRANCH  18  19
ENDBRANCH  16  17
ENDBRANCH  15  16
ENDBRANCH  13  14
ENDBRANCH  12  13
ENDBRANCH  10  11
ENDBRANCH   9  10
ENDBRANCH   7   8
ENDBRANCH   6   7
ENDBRANCH   5   6
ENDBRANCH   3   5
ENDBRANCH   1   3
TORSDOF 15
ENDMDL
MODEL 6
REMARK VINA RESULT:      -5.1     30.362     32.942
REMARK  15 active torsions:
REMARK  status: ('A' for Active; 'I' for Inactive)
REMARK    1  A    between atoms: O_1  and  C_22 
REMARK    2  A    between atoms: C_3  and  C_4 
REMARK    3  A    between atoms: C_3  and  C_5 
REMARK    4  A    between atoms: C_4  and  C_6 
REMARK    5  A    between atoms: C_5  and  C_7 
REMARK    6  A    between atoms: C_9  and  C_10 
REMARK    7  A    between atoms: C_9  and  C_13 
REMARK    8  A    between atoms: C_10  and  C_14 
REMARK    9  A    between atoms: C_11  and  C_12 
REMARK   10  A    between atoms: C_12  and  C_16 
REMARK   11  A    between atoms: C_13  and  C_22 
REMARK   12  A    between atoms: C_15  and  C_17 
REMARK   13  A    between atoms: C_15  and  C_20 
REMARK   14  A    between atoms: C_18  and  C_19 
REMARK   15  A    between atoms: C_18  and  C_21 
ROOT
HETATM    1  O   UNL     1     -33.176 -12.759  -7.776  1.00  0.00    -0.776 OA
HETATM    2  H   UNL     1     -33.670 -13.582  -7.896  1.00  0.00     0.167 HD
ENDROOT
BRANCH   1   3
HETATM    3  C   UNL     1     -33.747 -11.557  -8.001  1.00  0.00     0.139 C 
HETATM    4  O   UNL     1     -33.822 -10.735  -7.099  1.00  0.00    -0.650 OA
BRANCH   3   5
HETATM    5  C   UNL     1     -34.301 -11.236  -9.362  1.00  0.00     0.110 C 
BRANCH   5   6
HETATM    6  C   UNL     1     -34.285  -9.730  -9.658  1.00  0.00     0.014 C 
BRANCH   6   7
HETATM    7  C   UNL     1     -35.126  -9.360 -10.887  1.00  0.00     0.027 C 
BRANCH   7   8
HETATM    8  C   UNL     1     -34.860  -7.926 -11.272  1.00  0.00    -0.030 C 
HETATM    9  C   UNL     1     -34.744  -7.469 -12.533  1.00  0.00    -0.027 C 
BRANCH   9  10
HETATM   10  C   UNL     1     -34.882  -8.303 -13.781  1.00  0.00     0.053 C 
BRANCH  10  11
HETATM   11  C   UNL     1     -34.577  -7.491 -15.020  1.00  0.00    -0.027 C 
HETATM   12  C   UNL     1     -35.454  -6.838 -15.810  1.00  0.00    -0.027 C 
BRANCH  12  13
HETATM   13  C   UNL     1     -36.948  -6.751 -15.629  1.00  0.00     0.053 C 
BRANCH  13  14
HETATM   14  C   UNL     1     -37.355  -5.319 -15.375  1.00  0.00    -0.027 C 
HETATM   15  C   UNL     1     -37.656  -4.803 -14.166  1.00  0.00    -0.027 C 
BRANCH  15  16
HETATM   16  C   UNL     1     -37.648  -5.584 -12.878  1.00  0.00     0.053 C 
BRANCH  16  17
HETATM   17  C   UNL     1     -37.417  -4.687 -11.688  1.00  0.00    -0.027 C 
HETATM   18  C   UNL     1     -37.875  -4.948 -10.452  1.00  0.00    -0.030 C 
BRANCH  18  19
HETATM   19  C   UNL     1     -38.691  -6.160 -10.075  1.00  0.00     0.027 C 
BRANCH  19  20
HETATM   20  C   UNL     1     -37.952  -6.963  -9.000  1.00  0.00     0.004 C 
BRANCH  20  21
HETATM   21  C   UNL     1     -37.695  -6.115  -7.750  1.00  0.00    -0.000 C 
BRANCH  21  22
HETATM   22  C   UNL     1     -36.392  -6.536  -7.061  1.00  0.00    -0.005 C 
HETATM   23  C   UNL     1     -36.232  -8.053  -7.066  1.00  0.00     0.005 C 
ENDBRANCH  21  22
ENDBRANCH  20  21
ENDBRANCH  19  20
ENDBRANCH  18  19
ENDBRANCH  16  17
ENDBRANCH  15  16
ENDBRANCH  13  14
ENDBRANCH  12  13
ENDBRANCH  10  11
ENDBRANCH   9  10
ENDBRANCH   7   8
ENDBRANCH   6   7
ENDBRANCH   5   6
ENDBRANCH   3   5
ENDBRANCH   1   3
TORSDOF 15
ENDMDL
MODEL 7
REMARK VINA RESULT:      -5.1     32.513     34.973
REMARK  15 active torsions:
REMARK  status: ('A' for Active; 'I' for Inactive)
REMARK    1  A    between atoms: O_1  and  C_22 
REMARK    2  A    between atoms: C_3  and  C_4 
REMARK    3  A    between atoms: C_3  and  C_5 
REMARK    4  A    between atoms: C_4  and  C_6 
REMARK    5  A    between atoms: C_5  and  C_7 
REMARK    6  A    between atoms: C_9  and  C_10 
REMARK    7  A    between atoms: C_9  and  C_13 
REMARK    8  A    between atoms: C_10  and  C_14 
REMARK    9  A    between atoms: C_11  and  C_12 
REMARK   10  A    between atoms: C_12  and  C_16 
REMARK   11  A    between atoms: C_13  and  C_22 
REMARK   12  A    between atoms: C_15  and  C_17 
REMARK   13  A    between atoms: C_15  and  C_20 
REMARK   14  A    between atoms: C_18  and  C_19 
REMARK   15  A    between atoms: C_18  and  C_21 
ROOT
HETATM    1  O   UNL     1     -33.276 -10.396 -13.624  1.00  0.00    -0.776 OA
HETATM    2  H   UNL     1     -33.307 -11.322 -13.347  1.00  0.00     0.167 HD
ENDROOT
BRANCH   1   3
HETATM    3  C   UNL     1     -34.214  -9.876 -14.444  1.00  0.00     0.139 C 
HETATM    4  O   UNL     1     -34.686 -10.555 -15.344  1.00  0.00    -0.650 OA
BRANCH   3   5
HETATM    5  C   UNL     1     -34.668  -8.454 -14.254  1.00  0.00     0.110 C 
BRANCH   5   6
HETATM    6  C   UNL     1     -34.761  -8.064 -12.772  1.00  0.00     0.014 C 
BRANCH   6   7
HETATM    7  C   UNL     1     -35.848  -7.015 -12.504  1.00  0.00     0.027 C 
BRANCH   7   8
HETATM    8  C   UNL     1     -37.160  -7.483 -13.082  1.00  0.00    -0.030 C 
HETATM    9  C   UNL     1     -37.957  -6.756 -13.888  1.00  0.00    -0.027 C 
BRANCH   9  10
HETATM   10  C   UNL     1     -37.668  -5.358 -14.372  1.00  0.00     0.053 C 
BRANCH  10  11
HETATM   11  C   UNL     1     -37.986  -5.211 -15.844  1.00  0.00    -0.027 C 
HETATM   12  C   UNL     1     -37.314  -5.743 -16.885  1.00  0.00    -0.027 C 
BRANCH  12  13
HETATM   13  C   UNL     1     -36.095  -6.629 -16.822  1.00  0.00     0.053 C 
BRANCH  13  14
HETATM   14  C   UNL     1     -36.404  -7.976 -17.432  1.00  0.00    -0.027 C 
HETATM   15  C   UNL     1     -35.721  -8.539 -18.450  1.00  0.00    -0.027 C 
BRANCH  15  16
HETATM   16  C   UNL     1     -34.551  -7.898 -19.151  1.00  0.00     0.053 C 
BRANCH  16  17
HETATM   17  C   UNL     1     -34.753  -7.863 -20.645  1.00  0.00    -0.027 C 
HETATM   18  C   UNL     1     -35.476  -6.925 -21.282  1.00  0.00    -0.030 C 
BRANCH  18  19
HETATM   19  C   UNL     1     -36.196  -5.787 -20.604  1.00  0.00     0.027 C 
BRANCH  19  20
HETATM   20  C   UNL     1     -37.503  -5.490 -21.347  1.00  0.00     0.004 C 
BRANCH  20  21
HETATM   21  C   UNL     1     -38.425  -6.714 -21.358  1.00  0.00    -0.000 C 
BRANCH  21  22
HETATM   22  C   UNL     1     -39.034  -6.953 -19.971  1.00  0.00    -0.005 C 
HETATM   23  C   UNL     1     -39.288  -8.437 -19.730  1.00  0.00     0.005 C 
ENDBRANCH  21  22
ENDBRANCH  20  21
ENDBRANCH  19  20
ENDBRANCH  18  19
ENDBRANCH  16  17
ENDBRANCH  15  16
ENDBRANCH  13  14
ENDBRANCH  12  13
ENDBRANCH  10  11
ENDBRANCH   9  10
ENDBRANCH   7   8
ENDBRANCH   6   7
ENDBRANCH   5   6
ENDBRANCH   3   5
ENDBRANCH   1   3
TORSDOF 15
ENDMDL
MODEL 8
REMARK VINA RESULT:      -5.1     33.088     35.128
REMARK  15 active torsions:
REMARK  status: ('A' for Active; 'I' for Inactive)
REMARK    1  A    between atoms: O_1  and  C_22 
REMARK    2  A    between atoms: C_3  and  C_4 
REMARK    3  A    between atoms: C_3  and  C_5 
REMARK    4  A    between atoms: C_4  and  C_6 
REMARK    5  A    between atoms: C_5  and  C_7 
REMARK    6  A    between atoms: C_9  and  C_10 
REMARK    7  A    between atoms: C_9  and  C_13 
REMARK    8  A    between atoms: C_10  and  C_14 
REMARK    9  A    between atoms: C_11  and  C_12 
REMARK   10  A    between atoms: C_12  and  C_16 
REMARK   11  A    between atoms: C_13  and  C_22 
REMARK   12  A    between atoms: C_15  and  C_17 
REMARK   13  A    between atoms: C_15  and  C_20 
REMARK   14  A    between atoms: C_18  and  C_19 
REMARK   15  A    between atoms: C_18  and  C_21 
ROOT
HETATM    1  O   UNL     1     -25.197  16.934 -12.506  1.00  0.00    -0.776 OA
HETATM    2  H   UNL     1     -25.172  17.264 -13.415  1.00  0.00     0.167 HD
ENDROOT
BRANCH   1   3
HETATM    3  C   UNL     1     -25.573  15.667 -12.229  1.00  0.00     0.139 C 
HETATM    4  O   UNL     1     -25.168  15.116 -11.216  1.00  0.00    -0.650 OA
BRANCH   3   5
HETATM    5  C   UNL     1     -26.482  14.933 -13.175  1.00  0.00     0.110 C 
BRANCH   5   6
HETATM    6  C   UNL     1     -26.282  15.369 -14.634  1.00  0.00     0.014 C 
BRANCH   6   7
HETATM    7  C   UNL     1     -25.437  14.373 -15.439  1.00  0.00     0.027 C 
BRANCH   7   8
HETATM    8  C   UNL     1     -26.309  13.241 -15.920  1.00  0.00    -0.030 C 
HETATM    9  C   UNL     1     -26.892  13.171 -17.132  1.00  0.00    -0.027 C 
BRANCH   9  10
HETATM   10  C   UNL     1     -26.757  14.197 -18.228  1.00  0.00     0.053 C 
BRANCH  10  11
HETATM   11  C   UNL     1     -26.108  13.603 -19.459  1.00  0.00    -0.027 C 
HETATM   12  C   UNL     1     -26.545  13.675 -20.733  1.00  0.00    -0.027 C 
BRANCH  12  13
HETATM   13  C   UNL     1     -27.778  14.385 -21.230  1.00  0.00     0.053 C 
BRANCH  13  14
HETATM   14  C   UNL     1     -28.826  13.377 -21.639  1.00  0.00    -0.027 C 
HETATM   15  C   UNL     1     -29.873  12.997 -20.879  1.00  0.00    -0.027 C 
BRANCH  15  16
HETATM   16  C   UNL     1     -30.151  13.512 -19.491  1.00  0.00     0.053 C 
BRANCH  16  17
HETATM   17  C   UNL     1     -31.366  12.850 -18.889  1.00  0.00    -0.027 C 
HETATM   18  C   UNL     1     -31.416  12.376 -17.632  1.00  0.00    -0.030 C 
BRANCH  18  19
HETATM   19  C   UNL     1     -30.274  12.424 -16.649  1.00  0.00     0.027 C 
BRANCH  19  20
HETATM   20  C   UNL     1     -30.796  12.854 -15.274  1.00  0.00     0.004 C 
BRANCH  20  21
HETATM   21  C   UNL     1     -30.204  14.204 -14.854  1.00  0.00    -0.000 C 
BRANCH  21  22
HETATM   22  C   UNL     1     -29.786  15.023 -16.080  1.00  0.00    -0.005 C 
HETATM   23  C   UNL     1     -29.534  16.481 -15.709  1.00  0.00     0.005 C 
ENDBRANCH  21  22
ENDBRANCH  20  21
ENDBRANCH  19  20
ENDBRANCH  18  19
ENDBRANCH  16  17
ENDBRANCH  15  16
ENDBRANCH  13  14
ENDBRANCH  12  13
ENDBRANCH  10  11
ENDBRANCH   9  10
ENDBRANCH   7   8
ENDBRANCH   6   7
ENDBRANCH   5   6
ENDBRANCH   3   5
ENDBRANCH   1   3
TORSDOF 15
ENDMDL
MODEL 9
REMARK VINA RESULT:      -5.1     31.360     34.171
REMARK  15 active torsions:
REMARK  status: ('A' for Active; 'I' for Inactive)
REMARK    1  A    between atoms: O_1  and  C_22 
REMARK    2  A    between atoms: C_3  and  C_4 
REMARK    3  A    between atoms: C_3  and  C_5 
REMARK    4  A    between atoms: C_4  and  C_6 
REMARK    5  A    between atoms: C_5  and  C_7 
REMARK    6  A    between atoms: C_9  and  C_10 
REMARK    7  A    between atoms: C_9  and  C_13 
REMARK    8  A    between atoms: C_10  and  C_14 
REMARK    9  A    between atoms: C_11  and  C_12 
REMARK   10  A    between atoms: C_12  and  C_16 
REMARK   11  A    between atoms: C_13  and  C_22 
REMARK   12  A    between atoms: C_15  and  C_17 
REMARK   13  A    between atoms: C_15  and  C_20 
REMARK   14  A    between atoms: C_18  and  C_19 
REMARK   15  A    between atoms: C_18  and  C_21 
ROOT
HETATM    1  O   UNL     1     -42.341  -9.652 -10.774  1.00  0.00    -0.776 OA
HETATM    2  H   UNL     1     -43.094  -9.088 -11.004  1.00  0.00     0.167 HD
ENDROOT
BRANCH   1   3
HETATM    3  C   UNL     1     -41.374  -9.225  -9.935  1.00  0.00     0.139 C 
HETATM    4  O   UNL     1     -41.572  -9.215  -8.728  1.00  0.00    -0.650 OA
BRANCH   3   5
HETATM    5  C   UNL     1     -40.059  -8.752 -10.488  1.00  0.00     0.110 C 
BRANCH   5   6
HETATM    6  C   UNL     1     -39.721  -7.320 -10.048  1.00  0.00     0.014 C 
BRANCH   6   7
HETATM    7  C   UNL     1     -38.354  -7.221  -9.358  1.00  0.00     0.027 C 
BRANCH   7   8
HETATM    8  C   UNL     1     -38.114  -5.801  -8.909  1.00  0.00    -0.030 C 
HETATM    9  C   UNL     1     -37.340  -4.905  -9.549  1.00  0.00    -0.027 C 
BRANCH   9  10
HETATM   10  C   UNL     1     -36.597  -5.153 -10.837  1.00  0.00     0.053 C 
BRANCH  10  11
HETATM   11  C   UNL     1     -37.433  -4.763 -12.036  1.00  0.00    -0.027 C 
HETATM   12  C   UNL     1     -37.881  -5.569 -13.020  1.00  0.00    -0.027 C 
BRANCH  12  13
HETATM   13  C   UNL     1     -37.668  -7.056 -13.144  1.00  0.00     0.053 C 
BRANCH  13  14
HETATM   14  C   UNL     1     -36.503  -7.337 -14.064  1.00  0.00    -0.027 C 
HETATM   15  C   UNL     1     -35.247  -7.614 -13.659  1.00  0.00    -0.027 C 
BRANCH  15  16
HETATM   16  C   UNL     1     -34.807  -7.671 -12.220  1.00  0.00     0.053 C 
BRANCH  16  17
HETATM   17  C   UNL     1     -35.307  -8.920 -11.538  1.00  0.00    -0.027 C 
HETATM   18  C   UNL     1     -34.934  -9.301 -10.303  1.00  0.00    -0.030 C 
BRANCH  18  19
HETATM   19  C   UNL     1     -33.962  -8.550  -9.429  1.00  0.00     0.027 C 
BRANCH  19  20
HETATM   20  C   UNL     1     -34.733  -7.657  -8.451  1.00  0.00     0.004 C 
BRANCH  20  21
HETATM   21  C   UNL     1     -34.997  -8.382  -7.127  1.00  0.00    -0.000 C 
BRANCH  21  22
HETATM   22  C   UNL     1     -36.185  -7.755  -6.388  1.00  0.00    -0.005 C 
HETATM   23  C   UNL     1     -35.866  -6.332  -5.939  1.00  0.00     0.005 C 
ENDBRANCH  21  22
ENDBRANCH  20  21
ENDBRANCH  19  20
ENDBRANCH  18  19
ENDBRANCH  16  17
ENDBRANCH  15  16
ENDBRANCH  13  14
ENDBRANCH  12  13
ENDBRANCH  10  11
ENDBRANCH   9  10
ENDBRANCH   7   8
ENDBRANCH   6   7
ENDBRANCH   5   6
ENDBRANCH   3   5
ENDBRANCH   1   3
TORSDOF 15
ENDMDL
MODEL 10
REMARK VINA RESULT:      -5.0     31.376     33.218
REMARK  15 active torsions:
REMARK  status: ('A' for Active; 'I' for Inactive)
REMARK    1  A    between atoms: O_1  and  C_22 
REMARK    2  A    between atoms: C_3  and  C_4 
REMARK    3  A    between atoms: C_3  and  C_5 
REMARK    4  A    between atoms: C_4  and  C_6 
REMARK    5  A    between atoms: C_5  and  C_7 
REMARK    6  A    between atoms: C_9  and  C_10 
REMARK    7  A    between atoms: C_9  and  C_13 
REMARK    8  A    between atoms: C_10  and  C_14 
REMARK    9  A    between atoms: C_11  and  C_12 
REMARK   10  A    between atoms: C_12  and  C_16 
REMARK   11  A    between atoms: C_13  and  C_22 
REMARK   12  A    between atoms: C_15  and  C_17 
REMARK   13  A    between atoms: C_15  and  C_20 
REMARK   14  A    between atoms: C_18  and  C_19 
REMARK   15  A    between atoms: C_18  and  C_21 
ROOT
HETATM    1  O   UNL     1     -33.480 -11.126 -12.731  1.00  0.00    -0.776 OA
HETATM    2  H   UNL     1     -32.882 -10.930 -11.997  1.00  0.00     0.167 HD
ENDROOT
BRANCH   1   3
HETATM    3  C   UNL     1     -34.714 -10.584 -12.798  1.00  0.00     0.139 C 
HETATM    4  O   UNL     1     -35.699 -11.274 -12.579  1.00  0.00    -0.650 OA
BRANCH   3   5
HETATM    5  C   UNL     1     -34.874  -9.131 -13.153  1.00  0.00     0.110 C 
BRANCH   5   6
HETATM    6  C   UNL     1     -34.996  -8.911 -14.668  1.00  0.00     0.014 C 
BRANCH   6   7
HETATM    7  C   UNL     1     -34.869  -7.434 -15.063  1.00  0.00     0.027 C 
BRANCH   7   8
HETATM    8  C   UNL     1     -34.590  -7.325 -16.541  1.00  0.00    -0.030 C 
HETATM    9  C   UNL     1     -35.525  -7.183 -17.499  1.00  0.00    -0.027 C 
BRANCH   9  10
HETATM   10  C   UNL     1     -37.011  -7.083 -17.263  1.00  0.00     0.053 C 
BRANCH  10  11
HETATM   11  C   UNL     1     -37.512  -5.678 -17.514  1.00  0.00    -0.027 C 
HETATM   12  C   UNL     1     -37.666  -4.688 -16.611  1.00  0.00    -0.027 C 
BRANCH  12  13
HETATM   13  C   UNL     1     -37.353  -4.748 -15.137  1.00  0.00     0.053 C 
BRANCH  13  14
HETATM   14  C   UNL     1     -38.128  -5.871 -14.489  1.00  0.00    -0.027 C 
HETATM   15  C   UNL     1     -38.039  -6.224 -13.190  1.00  0.00    -0.027 C 
BRANCH  15  16
HETATM   16  C   UNL     1     -37.136  -5.558 -12.185  1.00  0.00     0.053 C 
BRANCH  16  17
HETATM   17  C   UNL     1     -36.504  -6.566 -11.257  1.00  0.00    -0.027 C 
HETATM   18  C   UNL     1     -36.716  -6.598  -9.930  1.00  0.00    -0.030 C 
BRANCH  18  19
HETATM   19  C   UNL     1     -37.598  -5.636  -9.175  1.00  0.00     0.027 C 
BRANCH  19  20
HETATM   20  C   UNL     1     -37.493  -5.911  -7.672  1.00  0.00     0.004 C 
BRANCH  20  21
HETATM   21  C   UNL     1     -36.297  -6.817  -7.356  1.00  0.00    -0.000 C 
BRANCH  21  22
HETATM   22  C   UNL     1     -35.632  -6.403  -6.038  1.00  0.00    -0.005 C 
HETATM   23  C   UNL     1     -36.016  -7.350  -4.906  1.00  0.00     0.005 C 
ENDBRANCH  21  22
ENDBRANCH  20  21
ENDBRANCH  19  20
ENDBRANCH  18  19
ENDBRANCH  16  17
ENDBRANCH  15  16
ENDBRANCH  13  14
ENDBRANCH  12  13
ENDBRANCH  10  11
ENDBRANCH   9  10
ENDBRANCH   7   8
ENDBRANCH   6   7
ENDBRANCH   5   6
ENDBRANCH   3   5
ENDBRANCH   1   3
TORSDOF 15
ENDMDL
MODEL 11
REMARK VINA RESULT:      -4.9     32.074     34.439
REMARK  15 active torsions:
REMARK  status: ('A' for Active; 'I' for Inactive)
REMARK    1  A    between atoms: O_1  and  C_22 
REMARK    2  A    between atoms: C_3  and  C_4 
REMARK    3  A    between atoms: C_3  and  C_5 
REMARK    4  A    between atoms: C_4  and  C_6 
REMARK    5  A    between atoms: C_5  and  C_7 
REMARK    6  A    between atoms: C_9  and  C_10 
REMARK    7  A    between atoms: C_9  and  C_13 
REMARK    8  A    between atoms: C_10  and  C_14 
REMARK    9  A    between atoms: C_11  and  C_12 
REMARK   10  A    between atoms: C_12  and  C_16 
REMARK   11  A    between atoms: C_13  and  C_22 
REMARK   12  A    between atoms: C_15  and  C_17 
REMARK   13  A    between atoms: C_15  and  C_20 
REMARK   14  A    between atoms: C_18  and  C_19 
REMARK   15  A    between atoms: C_18  and  C_21 
ROOT
HETATM    1  O   UNL     1     -39.356  -9.142 -15.345  1.00  0.00    -0.776 OA
HETATM    2  H   UNL     1     -38.717  -9.454 -14.689  1.00  0.00     0.167 HD
ENDROOT
BRANCH   1   3
HETATM    3  C   UNL     1     -39.059  -9.116 -16.661  1.00  0.00     0.139 C 
HETATM    4  O   UNL     1     -38.777 -10.152 -17.246  1.00  0.00    -0.650 OA
BRANCH   3   5
HETATM    5  C   UNL     1     -39.064  -7.808 -17.403  1.00  0.00     0.110 C 
BRANCH   5   6
HETATM    6  C   UNL     1     -37.914  -7.707 -18.416  1.00  0.00     0.014 C 
BRANCH   6   7
HETATM    7  C   UNL     1     -36.918  -6.592 -18.071  1.00  0.00     0.027 C 
BRANCH   7   8
HETATM    8  C   UNL     1     -37.659  -5.294 -17.872  1.00  0.00    -0.030 C 
HETATM    9  C   UNL     1     -37.655  -4.563 -16.741  1.00  0.00    -0.027 C 
BRANCH   9  10
HETATM   10  C   UNL     1     -36.893  -4.901 -15.484  1.00  0.00     0.053 C 
BRANCH  10  11
HETATM   11  C   UNL     1     -37.652  -5.894 -14.632  1.00  0.00    -0.027 C 
HETATM   12  C   UNL     1     -37.887  -5.825 -13.306  1.00  0.00    -0.027 C 
BRANCH  12  13
HETATM   13  C   UNL     1     -37.462  -4.727 -12.364  1.00  0.00     0.053 C 
BRANCH  13  14
HETATM   14  C   UNL     1     -38.131  -4.909 -11.022  1.00  0.00    -0.027 C 
HETATM   15  C   UNL     1     -37.604  -5.583  -9.980  1.00  0.00    -0.027 C 
BRANCH  15  16
HETATM   16  C   UNL     1     -36.266  -6.275 -10.000  1.00  0.00     0.053 C 
BRANCH  16  17
HETATM   17  C   UNL     1     -36.398  -7.722 -10.404  1.00  0.00    -0.027 C 
HETATM   18  C   UNL     1     -35.787  -8.261 -11.474  1.00  0.00    -0.030 C 
BRANCH  18  19
HETATM   19  C   UNL     1     -34.896  -7.505 -12.427  1.00  0.00     0.027 C 
BRANCH  19  20
HETATM   20  C   UNL     1     -34.371  -8.457 -13.506  1.00  0.00     0.004 C 
BRANCH  20  21
HETATM   21  C   UNL     1     -34.540  -7.858 -14.906  1.00  0.00    -0.000 C 
BRANCH  21  22
HETATM   22  C   UNL     1     -35.458  -8.733 -15.768  1.00  0.00    -0.005 C 
HETATM   23  C   UNL     1     -35.818 -10.029 -15.048  1.00  0.00     0.005 C 
ENDBRANCH  21  22
ENDBRANCH  20  21
ENDBRANCH  19  20
ENDBRANCH  18  19
ENDBRANCH  16  17
ENDBRANCH  15  16
ENDBRANCH  13  14
ENDBRANCH  12  13
ENDBRANCH  10  11
ENDBRANCH   9  10
ENDBRANCH   7   8
ENDBRANCH   6   7
ENDBRANCH   5   6
ENDBRANCH   3   5
ENDBRANCH   1   3
TORSDOF 15
ENDMDL
MODEL 12
REMARK VINA RESULT:      -4.9     31.761     34.058
REMARK  15 active torsions:
REMARK  status: ('A' for Active; 'I' for Inactive)
REMARK    1  A    between atoms: O_1  and  C_22 
REMARK    2  A    between atoms: C_3  and  C_4 
REMARK    3  A    between atoms: C_3  and  C_5 
REMARK    4  A    between atoms: C_4  and  C_6 
REMARK    5  A    between atoms: C_5  and  C_7 
REMARK    6  A    between atoms: C_9  and  C_10 
REMARK    7  A    between atoms: C_9  and  C_13 
REMARK    8  A    between atoms: C_10  and  C_14 
REMARK    9  A    between atoms: C_11  and  C_12 
REMARK   10  A    between atoms: C_12  and  C_16 
REMARK   11  A    between atoms: C_13  and  C_22 
REMARK   12  A    between atoms: C_15  and  C_17 
REMARK   13  A    between atoms: C_15  and  C_20 
REMARK   14  A    between atoms: C_18  and  C_19 
REMARK   15  A    between atoms: C_18  and  C_21 
ROOT
HETATM    1  O   UNL     1     -26.280  17.291  -8.190  1.00  0.00    -0.776 OA
HETATM    2  H   UNL     1     -25.696  17.971  -8.553  1.00  0.00     0.167 HD
ENDROOT
BRANCH   1   3
HETATM    3  C   UNL     1     -25.852  16.026  -7.996  1.00  0.00     0.139 C 
HETATM    4  O   UNL     1     -24.687  15.814  -7.689  1.00  0.00    -0.650 OA
BRANCH   3   5
HETATM    5  C   UNL     1     -26.808  14.878  -8.170  1.00  0.00     0.110 C 
BRANCH   5   6
HETATM    6  C   UNL     1     -26.225  13.761  -9.047  1.00  0.00     0.014 C 
BRANCH   6   7
HETATM    7  C   UNL     1     -25.983  14.210 -10.494  1.00  0.00     0.027 C 
BRANCH   7   8
HETATM    8  C   UNL     1     -26.562  13.193 -11.446  1.00  0.00    -0.030 C 
HETATM    9  C   UNL     1     -26.898  13.432 -12.727  1.00  0.00    -0.027 C 
BRANCH   9  10
HETATM   10  C   UNL     1     -26.735  14.749 -13.443  1.00  0.00     0.053 C 
BRANCH  10  11
HETATM   11  C   UNL     1     -25.598  14.693 -14.440  1.00  0.00    -0.027 C 
HETATM   12  C   UNL     1     -25.671  14.857 -15.777  1.00  0.00    -0.027 C 
BRANCH  12  13
HETATM   13  C   UNL     1     -26.906  15.155 -16.589  1.00  0.00     0.053 C 
BRANCH  13  14
HETATM   14  C   UNL     1     -27.408  13.892 -17.249  1.00  0.00    -0.027 C 
HETATM   15  C   UNL     1     -28.479  13.181 -16.843  1.00  0.00    -0.027 C 
BRANCH  15  16
HETATM   16  C   UNL     1     -29.335  13.530 -15.654  1.00  0.00     0.053 C 
BRANCH  16  17
HETATM   17  C   UNL     1     -30.647  12.785 -15.679  1.00  0.00    -0.027 C 
HETATM   18  C   UNL     1     -31.535  12.797 -14.670  1.00  0.00    -0.030 C 
BRANCH  18  19
HETATM   19  C   UNL     1     -31.350  13.538 -13.370  1.00  0.00     0.027 C 
BRANCH  19  20
HETATM   20  C   UNL     1     -30.530  12.680 -12.401  1.00  0.00     0.004 C 
BRANCH  20  21
HETATM   21  C   UNL     1     -30.974  12.903 -10.951  1.00  0.00    -0.000 C 
BRANCH  21  22
HETATM   22  C   UNL     1     -29.868  13.591 -10.141  1.00  0.00    -0.005 C 
HETATM   23  C   UNL     1     -29.720  15.055 -10.544  1.00  0.00     0.005 C 
ENDBRANCH  21  22
ENDBRANCH  20  21
ENDBRANCH  19  20
ENDBRANCH  18  19
ENDBRANCH  16  17
ENDBRANCH  15  16
ENDBRANCH  13  14
ENDBRANCH  12  13
ENDBRANCH  10  11
ENDBRANCH   9  10
ENDBRANCH   7   8
ENDBRANCH   6   7
ENDBRANCH   5   6
ENDBRANCH   3   5
ENDBRANCH   1   3
TORSDOF 15
ENDMDL
MODEL 13
REMARK VINA RESULT:      -4.9     31.522     34.775
REMARK  15 active torsions:
REMARK  status: ('A' for Active; 'I' for Inactive)
REMARK    1  A    between atoms: O_1  and  C_22 
REMARK    2  A    between atoms: C_3  and  C_4 
REMARK    3  A    between atoms: C_3  and  C_5 
REMARK    4  A    between atoms: C_4  and  C_6 
REMARK    5  A    between atoms: C_5  and  C_7 
REMARK    6  A    between atoms: C_9  and  C_10 
REMARK    7  A    between atoms: C_9  and  C_13 
REMARK    8  A    between atoms: C_10  and  C_14 
REMARK    9  A    between atoms: C_11  and  C_12 
REMARK   10  A    between atoms: C_12  and  C_16 
REMARK   11  A    between atoms: C_13  and  C_22 
REMARK   12  A    between atoms: C_15  and  C_17 
REMARK   13  A    between atoms: C_15  and  C_20 
REMARK   14  A    between atoms: C_18  and  C_19 
REMARK   15  A    between atoms: C_18  and  C_21 
ROOT
HETATM    1  O   UNL     1     -40.115 -10.205 -10.152  1.00  0.00    -0.776 OA
HETATM    2  H   UNL     1     -39.152 -10.299 -10.171  1.00  0.00     0.167 HD
ENDROOT
BRANCH   1   3
HETATM    3  C   UNL     1     -40.704  -8.991 -10.189  1.00  0.00     0.139 C 
HETATM    4  O   UNL     1     -41.916  -8.895 -10.071  1.00  0.00    -0.650 OA
BRANCH   3   5
HETATM    5  C   UNL     1     -39.864  -7.759 -10.389  1.00  0.00     0.110 C 
BRANCH   5   6
HETATM    6  C   UNL     1     -39.081  -7.376  -9.125  1.00  0.00     0.014 C 
BRANCH   6   7
HETATM    7  C   UNL     1     -37.859  -8.273  -8.891  1.00  0.00     0.027 C 
BRANCH   7   8
HETATM    8  C   UNL     1     -36.824  -7.524  -8.090  1.00  0.00    -0.030 C 
HETATM    9  C   UNL     1     -35.491  -7.648  -8.233  1.00  0.00    -0.027 C 
BRANCH   9  10
HETATM   10  C   UNL     1     -34.799  -8.538  -9.235  1.00  0.00     0.053 C 
BRANCH  10  11
HETATM   11  C   UNL     1     -33.977  -7.727 -10.212  1.00  0.00    -0.027 C 
HETATM   12  C   UNL     1     -34.393  -7.167 -11.367  1.00  0.00    -0.027 C 
BRANCH  12  13
HETATM   13  C   UNL     1     -35.785  -7.205 -11.944  1.00  0.00     0.053 C 
BRANCH  13  14
HETATM   14  C   UNL     1     -36.578  -6.014 -11.458  1.00  0.00    -0.027 C 
HETATM   15  C   UNL     1     -37.549  -5.394 -12.158  1.00  0.00    -0.027 C 
BRANCH  15  16
HETATM   16  C   UNL     1     -37.983  -5.784 -13.547  1.00  0.00     0.053 C 
BRANCH  16  17
HETATM   17  C   UNL     1     -37.598  -4.737 -14.562  1.00  0.00    -0.027 C 
HETATM   18  C   UNL     1     -37.078  -5.018 -15.769  1.00  0.00    -0.030 C 
BRANCH  18  19
HETATM   19  C   UNL     1     -36.793  -6.407 -16.280  1.00  0.00     0.027 C 
BRANCH  19  20
HETATM   20  C   UNL     1     -35.303  -6.722 -16.113  1.00  0.00     0.004 C 
BRANCH  20  21
HETATM   21  C   UNL     1     -34.797  -7.629 -17.240  1.00  0.00    -0.000 C 
BRANCH  21  22
HETATM   22  C   UNL     1     -35.862  -7.789 -18.332  1.00  0.00    -0.005 C 
HETATM   23  C   UNL     1     -35.371  -7.238 -19.667  1.00  0.00     0.005 C 
ENDBRANCH  21  22
ENDBRANCH  20  21
ENDBRANCH  19  20
ENDBRANCH  18  19
ENDBRANCH  16  17
ENDBRANCH  15  16
ENDBRANCH  13  14
ENDBRANCH  12  13
ENDBRANCH  10  11
ENDBRANCH   9  10
ENDBRANCH   7   8
ENDBRANCH   6   7
ENDBRANCH   5   6
ENDBRANCH   3   5
ENDBRANCH   1   3
TORSDOF 15
ENDMDL
MODEL 14
REMARK VINA RESULT:      -4.9     33.013     35.130
REMARK  15 active torsions:
REMARK  status: ('A' for Active; 'I' for Inactive)
REMARK    1  A    between atoms: O_1  and  C_22 
REMARK    2  A    between atoms: C_3  and  C_4 
REMARK    3  A    between atoms: C_3  and  C_5 
REMARK    4  A    between atoms: C_4  and  C_6 
REMARK    5  A    between atoms: C_5  and  C_7 
REMARK    6  A    between atoms: C_9  and  C_10 
REMARK    7  A    between atoms: C_9  and  C_13 
REMARK    8  A    between atoms: C_10  and  C_14 
REMARK    9  A    between atoms: C_11  and  C_12 
REMARK   10  A    between atoms: C_12  and  C_16 
REMARK   11  A    between atoms: C_13  and  C_22 
REMARK   12  A    between atoms: C_15  and  C_17 
REMARK   13  A    between atoms: C_15  and  C_20 
REMARK   14  A    between atoms: C_18  and  C_19 
REMARK   15  A    between atoms: C_18  and  C_21 
ROOT
HETATM    1  O   UNL     1     -25.516  17.583 -16.872  1.00  0.00    -0.776 OA
HETATM    2  H   UNL     1     -25.044  18.247 -17.393  1.00  0.00     0.167 HD
ENDROOT
BRANCH   1   3
HETATM    3  C   UNL     1     -25.765  16.351 -17.363  1.00  0.00     0.139 C 
HETATM    4  O   UNL     1     -24.964  15.818 -18.116  1.00  0.00    -0.650 OA
BRANCH   3   5
HETATM    5  C   UNL     1     -27.037  15.640 -16.989  1.00  0.00     0.110 C 
BRANCH   5   6
HETATM    6  C   UNL     1     -26.894  14.113 -17.055  1.00  0.00     0.014 C 
BRANCH   6   7
HETATM    7  C   UNL     1     -27.684  13.396 -15.952  1.00  0.00     0.027 C 
BRANCH   7   8
HETATM    8  C   UNL     1     -29.154  13.409 -16.290  1.00  0.00    -0.030 C 
HETATM    9  C   UNL     1     -30.135  13.826 -15.468  1.00  0.00    -0.027 C 
BRANCH   9  10
HETATM   10  C   UNL     1     -29.938  14.375 -14.078  1.00  0.00     0.053 C 
BRANCH  10  11
HETATM   11  C   UNL     1     -30.219  13.323 -13.028  1.00  0.00    -0.027 C 
HETATM   12  C   UNL     1     -29.522  13.084 -11.898  1.00  0.00    -0.027 C 
BRANCH  12  13
HETATM   13  C   UNL     1     -28.306  13.829 -11.408  1.00  0.00     0.053 C 
BRANCH  13  14
HETATM   14  C   UNL     1     -27.083  13.382 -12.174  1.00  0.00    -0.027 C 
HETATM   15  C   UNL     1     -26.087  14.195 -12.582  1.00  0.00    -0.027 C 
BRANCH  15  16
HETATM   16  C   UNL     1     -26.050  15.683 -12.350  1.00  0.00     0.053 C 
BRANCH  16  17
HETATM   17  C   UNL     1     -26.471  16.445 -13.581  1.00  0.00    -0.027 C 
HETATM   18  C   UNL     1     -27.569  17.219 -13.645  1.00  0.00    -0.030 C 
BRANCH  18  19
HETATM   19  C   UNL     1     -28.540  17.429 -12.511  1.00  0.00     0.027 C 
BRANCH  19  20
HETATM   20  C   UNL     1     -29.217  18.796 -12.660  1.00  0.00     0.004 C 
BRANCH  20  21
HETATM   21  C   UNL     1     -28.937  19.406 -14.037  1.00  0.00    -0.000 C 
BRANCH  21  22
HETATM   22  C   UNL     1     -30.244  19.795 -14.738  1.00  0.00    -0.005 C 
HETATM   23  C   UNL     1     -31.343  18.774 -14.460  1.00  0.00     0.005 C 
ENDBRANCH  21  22
ENDBRANCH  20  21
ENDBRANCH  19  20
ENDBRANCH  18  19
ENDBRANCH  16  17
ENDBRANCH  15  16
ENDBRANCH  13  14
ENDBRANCH  12  13
ENDBRANCH  10  11
ENDBRANCH   9  10
ENDBRANCH   7   8
ENDBRANCH   6   7
ENDBRANCH   5   6
ENDBRANCH   3   5
ENDBRANCH   1   3
TORSDOF 15
ENDMDL
MODEL 15
REMARK VINA RESULT:      -4.9     31.476     33.435
REMARK  15 active torsions:
REMARK  status: ('A' for Active; 'I' for Inactive)
REMARK    1  A    between atoms: O_1  and  C_22 
REMARK    2  A    between atoms: C_3  and  C_4 
REMARK    3  A    between atoms: C_3  and  C_5 
REMARK    4  A    between atoms: C_4  and  C_6 
REMARK    5  A    between atoms: C_5  and  C_7 
REMARK    6  A    between atoms: C_9  and  C_10 
REMARK    7  A    between atoms: C_9  and  C_13 
REMARK    8  A    between atoms: C_10  and  C_14 
REMARK    9  A    between atoms: C_11  and  C_12 
REMARK   10  A    between atoms: C_12  and  C_16 
REMARK   11  A    between atoms: C_13  and  C_22 
REMARK   12  A    between atoms: C_15  and  C_17 
REMARK   13  A    between atoms: C_15  and  C_20 
REMARK   14  A    between atoms: C_18  and  C_19 
REMARK   15  A    between atoms: C_18  and  C_21 
ROOT
HETATM    1  O   UNL     1     -40.712  -8.480 -13.849  1.00  0.00    -0.776 OA
HETATM    2  H   UNL     1     -41.185  -9.217 -13.439  1.00  0.00     0.167 HD
ENDROOT
BRANCH   1   3
HETATM    3  C   UNL     1     -39.424  -8.214 -13.543  1.00  0.00     0.139 C 
HETATM    4  O   UNL     1     -39.024  -8.357 -12.397  1.00  0.00    -0.650 OA
BRANCH   3   5
HETATM    5  C   UNL     1     -38.486  -7.729 -14.614  1.00  0.00     0.110 C 
BRANCH   5   6
HETATM    6  C   UNL     1     -38.572  -6.211 -14.823  1.00  0.00     0.014 C 
BRANCH   6   7
HETATM    7  C   UNL     1     -37.326  -5.636 -15.509  1.00  0.00     0.027 C 
BRANCH   7   8
HETATM    8  C   UNL     1     -37.200  -6.211 -16.897  1.00  0.00    -0.030 C 
HETATM    9  C   UNL     1     -36.141  -6.904 -17.357  1.00  0.00    -0.027 C 
BRANCH   9  10
HETATM   10  C   UNL     1     -34.908  -7.249 -16.560  1.00  0.00     0.053 C 
BRANCH  10  11
HETATM   11  C   UNL     1     -35.045  -8.601 -15.895  1.00  0.00    -0.027 C 
HETATM   12  C   UNL     1     -34.809  -8.907 -14.603  1.00  0.00    -0.027 C 
BRANCH  12  13
HETATM   13  C   UNL     1     -34.370  -7.964 -13.512  1.00  0.00     0.053 C 
BRANCH  13  14
HETATM   14  C   UNL     1     -35.573  -7.464 -12.747  1.00  0.00    -0.027 C 
HETATM   15  C   UNL     1     -35.586  -7.176 -11.429  1.00  0.00    -0.027 C 
BRANCH  15  16
HETATM   16  C   UNL     1     -34.402  -7.326 -10.511  1.00  0.00     0.053 C 
BRANCH  16  17
HETATM   17  C   UNL     1     -34.543  -8.535  -9.620  1.00  0.00    -0.027 C 
HETATM   18  C   UNL     1     -35.037  -8.492  -8.370  1.00  0.00    -0.030 C 
BRANCH  18  19
HETATM   19  C   UNL     1     -35.508  -7.240  -7.674  1.00  0.00     0.027 C 
BRANCH  19  20
HETATM   20  C   UNL     1     -37.025  -7.101  -7.835  1.00  0.00     0.004 C 
BRANCH  20  21
HETATM   21  C   UNL     1     -37.400  -5.724  -8.394  1.00  0.00    -0.000 C 
BRANCH  21  22
HETATM   22  C   UNL     1     -37.633  -4.720  -7.259  1.00  0.00    -0.005 C 
HETATM   23  C   UNL     1     -37.887  -5.433  -5.935  1.00  0.00     0.005 C 
ENDBRANCH  21  22
ENDBRANCH  20  21
ENDBRANCH  19  20
ENDBRANCH  18  19
ENDBRANCH  16  17
ENDBRANCH  15  16
ENDBRANCH  13  14
ENDBRANCH  12  13
ENDBRANCH  10  11
ENDBRANCH   9  10
ENDBRANCH   7   8
ENDBRANCH   6   7
ENDBRANCH   5   6
ENDBRANCH   3   5
ENDBRANCH   1   3
TORSDOF 15
ENDMDL
MODEL 16
REMARK VINA RESULT:      -4.8     31.566     34.468
REMARK  15 active torsions:
REMARK  status: ('A' for Active; 'I' for Inactive)
REMARK    1  A    between atoms: O_1  and  C_22 
REMARK    2  A    between atoms: C_3  and  C_4 
REMARK    3  A    between atoms: C_3  and  C_5 
REMARK    4  A    between atoms: C_4  and  C_6 
REMARK    5  A    between atoms: C_5  and  C_7 
REMARK    6  A    between atoms: C_9  and  C_10 
REMARK    7  A    between atoms: C_9  and  C_13 
REMARK    8  A    between atoms: C_10  and  C_14 
REMARK    9  A    between atoms: C_11  and  C_12 
REMARK   10  A    between atoms: C_12  and  C_16 
REMARK   11  A    between atoms: C_13  and  C_22 
REMARK   12  A    between atoms: C_15  and  C_17 
REMARK   13  A    between atoms: C_15  and  C_20 
REMARK   14  A    between atoms: C_18  and  C_19 
REMARK   15  A    between atoms: C_18  and  C_21 
ROOT
HETATM    1  O   UNL     1     -40.696 -11.475 -10.786  1.00  0.00    -0.776 OA
HETATM    2  H   UNL     1     -41.352 -12.076 -11.165  1.00  0.00     0.167 HD
ENDROOT
BRANCH   1   3
HETATM    3  C   UNL     1     -40.696 -10.158 -11.080  1.00  0.00     0.139 C 
HETATM    4  O   UNL     1     -41.720  -9.619 -11.475  1.00  0.00    -0.650 OA
BRANCH   3   5
HETATM    5  C   UNL     1     -39.431  -9.358 -10.930  1.00  0.00     0.110 C 
BRANCH   5   6
HETATM    6  C   UNL     1     -39.707  -7.888 -10.585  1.00  0.00     0.014 C 
BRANCH   6   7
HETATM    7  C   UNL     1     -39.094  -7.470  -9.242  1.00  0.00     0.027 C 
BRANCH   7   8
HETATM    8  C   UNL     1     -38.276  -6.217  -9.425  1.00  0.00    -0.030 C 
HETATM    9  C   UNL     1     -37.627  -5.562  -8.443  1.00  0.00    -0.027 C 
BRANCH   9  10
HETATM   10  C   UNL     1     -37.585  -5.979  -6.995  1.00  0.00     0.053 C 
BRANCH  10  11
HETATM   11  C   UNL     1     -36.170  -6.279  -6.552  1.00  0.00    -0.027 C 
HETATM   12  C   UNL     1     -35.450  -7.391  -6.806  1.00  0.00    -0.027 C 
BRANCH  12  13
HETATM   13  C   UNL     1     -35.884  -8.590  -7.610  1.00  0.00     0.053 C 
BRANCH  13  14
HETATM   14  C   UNL     1     -34.725  -9.113  -8.425  1.00  0.00    -0.027 C 
HETATM   15  C   UNL     1     -34.309  -8.597  -9.600  1.00  0.00    -0.027 C 
BRANCH  15  16
HETATM   16  C   UNL     1     -34.952  -7.424 -10.291  1.00  0.00     0.053 C 
BRANCH  16  17
HETATM   17  C   UNL     1     -34.477  -7.295 -11.717  1.00  0.00    -0.027 C 
HETATM   18  C   UNL     1     -35.293  -7.325 -12.785  1.00  0.00    -0.030 C 
BRANCH  18  19
HETATM   19  C   UNL     1     -36.789  -7.503 -12.720  1.00  0.00     0.027 C 
BRANCH  19  20
HETATM   20  C   UNL     1     -37.480  -6.171 -13.027  1.00  0.00     0.004 C 
BRANCH  20  21
HETATM   21  C   UNL     1     -38.291  -6.253 -14.324  1.00  0.00    -0.000 C 
BRANCH  21  22
HETATM   22  C   UNL     1     -37.436  -5.847 -15.530  1.00  0.00    -0.005 C 
HETATM   23  C   UNL     1     -37.445  -4.334 -15.728  1.00  0.00     0.005 C 
ENDBRANCH  21  22
ENDBRANCH  20  21
ENDBRANCH  19  20
ENDBRANCH  18  19
ENDBRANCH  16  17
ENDBRANCH  15  16
ENDBRANCH  13  14
ENDBRANCH  12  13
ENDBRANCH  10  11
ENDBRANCH   9  10
ENDBRANCH   7   8
ENDBRANCH   6   7
ENDBRANCH   5   6
ENDBRANCH   3   5
ENDBRANCH   1   3
TORSDOF 15
ENDMDL
MODEL 17
REMARK VINA RESULT:      -4.8     32.160     35.033
REMARK  15 active torsions:
REMARK  status: ('A' for Active; 'I' for Inactive)
REMARK    1  A    between atoms: O_1  and  C_22 
REMARK    2  A    between atoms: C_3  and  C_4 
REMARK    3  A    between atoms: C_3  and  C_5 
REMARK    4  A    between atoms: C_4  and  C_6 
REMARK    5  A    between atoms: C_5  and  C_7 
REMARK    6  A    between atoms: C_9  and  C_10 
REMARK    7  A    between atoms: C_9  and  C_13 
REMARK    8  A    between atoms: C_10  and  C_14 
REMARK    9  A    between atoms: C_11  and  C_12 
REMARK   10  A    between atoms: C_12  and  C_16 
REMARK   11  A    between atoms: C_13  and  C_22 
REMARK   12  A    between atoms: C_15  and  C_17 
REMARK   13  A    between atoms: C_15  and  C_20 
REMARK   14  A    between atoms: C_18  and  C_19 
REMARK   15  A    between atoms: C_18  and  C_21 
ROOT
HETATM    1  O   UNL     1     -28.584  20.169  -8.074  1.00  0.00    -0.776 OA
HETATM    2  H   UNL     1     -29.167  20.451  -7.355  1.00  0.00     0.167 HD
ENDROOT
BRANCH   1   3
HETATM    3  C   UNL     1     -29.079  19.657  -9.221  1.00  0.00     0.139 C 
HETATM    4  O   UNL     1     -30.253  19.832  -9.513  1.00  0.00    -0.650 OA
BRANCH   3   5
HETATM    5  C   UNL     1     -28.184  18.862 -10.131  1.00  0.00     0.110 C 
BRANCH   5   6
HETATM    6  C   UNL     1     -28.105  17.383  -9.725  1.00  0.00     0.014 C 
BRANCH   6   7
HETATM    7  C   UNL     1     -28.917  16.470 -10.652  1.00  0.00     0.027 C 
BRANCH   7   8
HETATM    8  C   UNL     1     -30.252  16.164 -10.021  1.00  0.00    -0.030 C 
HETATM    9  C   UNL     1     -30.516  15.096  -9.244  1.00  0.00    -0.027 C 
BRANCH   9  10
HETATM   10  C   UNL     1     -29.521  14.035  -8.849  1.00  0.00     0.053 C 
BRANCH  10  11
HETATM   11  C   UNL     1     -28.842  14.379  -7.542  1.00  0.00    -0.027 C 
HETATM   12  C   UNL     1     -27.558  14.150  -7.199  1.00  0.00    -0.027 C 
BRANCH  12  13
HETATM   13  C   UNL     1     -26.492  13.511  -8.051  1.00  0.00     0.053 C 
BRANCH  13  14
HETATM   14  C   UNL     1     -25.909  14.531  -9.000  1.00  0.00    -0.027 C 
HETATM   15  C   UNL     1     -25.827  14.384 -10.339  1.00  0.00    -0.027 C 
BRANCH  15  16
HETATM   16  C   UNL     1     -26.292  13.167 -11.094  1.00  0.00     0.053 C 
BRANCH  16  17
HETATM   17  C   UNL     1     -27.516  13.465 -11.924  1.00  0.00    -0.027 C 
HETATM   18  C   UNL     1     -27.473  13.875 -13.203  1.00  0.00    -0.030 C 
BRANCH  18  19
HETATM   19  C   UNL     1     -26.207  14.107 -13.990  1.00  0.00     0.027 C 
BRANCH  19  20
HETATM   20  C   UNL     1     -26.214  15.526 -14.569  1.00  0.00     0.004 C 
BRANCH  20  21
HETATM   21  C   UNL     1     -26.603  16.558 -13.505  1.00  0.00    -0.000 C 
BRANCH  21  22
HETATM   22  C   UNL     1     -27.751  17.445 -14.000  1.00  0.00    -0.005 C 
HETATM   23  C   UNL     1     -27.582  17.794 -15.475  1.00  0.00     0.005 C 
ENDBRANCH  21  22
ENDBRANCH  20  21
ENDBRANCH  19  20
ENDBRANCH  18  19
ENDBRANCH  16  17
ENDBRANCH  15  16
ENDBRANCH  13  14
ENDBRANCH  12  13
ENDBRANCH  10  11
ENDBRANCH   9  10
ENDBRANCH   7   8
ENDBRANCH   6   7
ENDBRANCH   5   6
ENDBRANCH   3   5
ENDBRANCH   1   3
TORSDOF 15
ENDMDL
MODEL 18
REMARK VINA RESULT:      -4.8     32.618     34.808
REMARK  15 active torsions:
REMARK  status: ('A' for Active; 'I' for Inactive)
REMARK    1  A    between atoms: O_1  and  C_22 
REMARK    2  A    between atoms: C_3  and  C_4 
REMARK    3  A    between atoms: C_3  and  C_5 
REMARK    4  A    between atoms: C_4  and  C_6 
REMARK    5  A    between atoms: C_5  and  C_7 
REMARK    6  A    between atoms: C_9  and  C_10 
REMARK    7  A    between atoms: C_9  and  C_13 
REMARK    8  A    between atoms: C_10  and  C_14 
REMARK    9  A    between atoms: C_11  and  C_12 
REMARK   10  A    between atoms: C_12  and  C_16 
REMARK   11  A    between atoms: C_13  and  C_22 
REMARK   12  A    between atoms: C_15  and  C_17 
REMARK   13  A    between atoms: C_15  and  C_20 
REMARK   14  A    between atoms: C_18  and  C_19 
REMARK   15  A    between atoms: C_18  and  C_21 
ROOT
HETATM    1  O   UNL     1     -30.851  19.730 -10.291  1.00  0.00    -0.776 OA
HETATM    2  H   UNL     1     -31.375  20.397 -10.756  1.00  0.00     0.167 HD
ENDROOT
BRANCH   1   3
HETATM    3  C   UNL     1     -30.419  19.932  -9.028  1.00  0.00     0.139 C 
HETATM    4  O   UNL     1     -31.219  20.184  -8.139  1.00  0.00    -0.650 OA
BRANCH   3   5
HETATM    5  C   UNL     1     -28.948  19.859  -8.721  1.00  0.00     0.110 C 
BRANCH   5   6
HETATM    6  C   UNL     1     -28.214  18.851  -9.617  1.00  0.00     0.014 C 
BRANCH   6   7
HETATM    7  C   UNL     1     -28.176  17.441  -9.014  1.00  0.00     0.027 C 
BRANCH   7   8
HETATM    8  C   UNL     1     -27.806  17.523  -7.554  1.00  0.00    -0.030 C 
HETATM    9  C   UNL     1     -26.694  16.999  -7.005  1.00  0.00    -0.027 C 
BRANCH   9  10
HETATM   10  C   UNL     1     -25.613  16.261  -7.753  1.00  0.00     0.053 C 
BRANCH  10  11
HETATM   11  C   UNL     1     -25.970  14.801  -7.933  1.00  0.00    -0.027 C 
HETATM   12  C   UNL     1     -26.184  14.146  -9.092  1.00  0.00    -0.027 C 
BRANCH  12  13
HETATM   13  C   UNL     1     -26.097  14.714 -10.485  1.00  0.00     0.053 C 
BRANCH  13  14
HETATM   14  C   UNL     1     -26.261  13.612 -11.505  1.00  0.00    -0.027 C 
HETATM   15  C   UNL     1     -27.418  13.289 -12.117  1.00  0.00    -0.027 C 
BRANCH  15  16
HETATM   16  C   UNL     1     -28.737  13.973 -11.864  1.00  0.00     0.053 C 
BRANCH  16  17
HETATM   17  C   UNL     1     -29.860  12.975 -11.731  1.00  0.00    -0.027 C 
HETATM   18  C   UNL     1     -30.559  12.780 -10.599  1.00  0.00    -0.030 C 
BRANCH  18  19
HETATM   19  C   UNL     1     -30.321  13.514  -9.304  1.00  0.00     0.027 C 
BRANCH  19  20
HETATM   20  C   UNL     1     -30.978  12.749  -8.150  1.00  0.00     0.004 C 
BRANCH  20  21
HETATM   21  C   UNL     1     -30.045  12.665  -6.938  1.00  0.00    -0.000 C 
BRANCH  21  22
HETATM   22  C   UNL     1     -29.232  13.956  -6.783  1.00  0.00    -0.005 C 
HETATM   23  C   UNL     1     -28.628  14.063  -5.387  1.00  0.00     0.005 C 
ENDBRANCH  21  22
ENDBRANCH  20  21
ENDBRANCH  19  20
ENDBRANCH  18  19
ENDBRANCH  16  17
ENDBRANCH  15  16
ENDBRANCH  13  14
ENDBRANCH  12  13
ENDBRANCH  10  11
ENDBRANCH   9  10
ENDBRANCH   7   8
ENDBRANCH   6   7
ENDBRANCH   5   6
ENDBRANCH   3   5
ENDBRANCH   1   3
TORSDOF 15
ENDMDL
MODEL 19
REMARK VINA RESULT:      -4.7     33.169     34.911
REMARK  15 active torsions:
REMARK  status: ('A' for Active; 'I' for Inactive)
REMARK    1  A    between atoms: O_1  and  C_22 
REMARK    2  A    between atoms: C_3  and  C_4 
REMARK    3  A    between atoms: C_3  and  C_5 
REMARK    4  A    between atoms: C_4  and  C_6 
REMARK    5  A    between atoms: C_5  and  C_7 
REMARK    6  A    between atoms: C_9  and  C_10 
REMARK    7  A    between atoms: C_9  and  C_13 
REMARK    8  A    between atoms: C_10  and  C_14 
REMARK    9  A    between atoms: C_11  and  C_12 
REMARK   10  A    between atoms: C_12  and  C_16 
REMARK   11  A    between atoms: C_13  and  C_22 
REMARK   12  A    between atoms: C_15  and  C_17 
REMARK   13  A    between atoms: C_15  and  C_20 
REMARK   14  A    between atoms: C_18  and  C_19 
REMARK   15  A    between atoms: C_18  and  C_21 
ROOT
HETATM    1  O   UNL     1     -39.876  -8.313 -23.351  1.00  0.00    -0.776 OA
HETATM    2  H   UNL     1     -39.704  -7.769 -24.132  1.00  0.00     0.167 HD
ENDROOT
BRANCH   1   3
HETATM    3  C   UNL     1     -39.217  -8.107 -22.191  1.00  0.00     0.139 C 
HETATM    4  O   UNL     1     -39.829  -8.090 -21.133  1.00  0.00    -0.650 OA
BRANCH   3   5
HETATM    5  C   UNL     1     -37.729  -7.887 -22.205  1.00  0.00     0.110 C 
BRANCH   5   6
HETATM    6  C   UNL     1     -37.359  -6.398 -22.147  1.00  0.00     0.014 C 
BRANCH   6   7
HETATM    7  C   UNL     1     -36.298  -6.093 -21.082  1.00  0.00     0.027 C 
BRANCH   7   8
HETATM    8  C   UNL     1     -35.114  -7.008 -21.268  1.00  0.00    -0.030 C 
HETATM    9  C   UNL     1     -34.520  -7.718 -20.290  1.00  0.00    -0.027 C 
BRANCH   9  10
HETATM   10  C   UNL     1     -34.948  -7.743 -18.845  1.00  0.00     0.053 C 
BRANCH  10  11
HETATM   11  C   UNL     1     -36.171  -8.612 -18.650  1.00  0.00    -0.027 C 
HETATM   12  C   UNL     1     -37.399  -8.223 -18.250  1.00  0.00    -0.027 C 
BRANCH  12  13
HETATM   13  C   UNL     1     -37.844  -6.820 -17.921  1.00  0.00     0.053 C 
BRANCH  13  14
HETATM   14  C   UNL     1     -38.384  -6.767 -16.512  1.00  0.00    -0.027 C 
HETATM   15  C   UNL     1     -37.644  -6.539 -15.407  1.00  0.00    -0.027 C 
BRANCH  15  16
HETATM   16  C   UNL     1     -36.154  -6.318 -15.409  1.00  0.00     0.053 C 
BRANCH  16  17
HETATM   17  C   UNL     1     -35.409  -7.573 -15.027  1.00  0.00    -0.027 C 
HETATM   18  C   UNL     1     -35.109  -7.910 -13.760  1.00  0.00    -0.030 C 
BRANCH  18  19
HETATM   19  C   UNL     1     -35.457  -7.087 -12.546  1.00  0.00     0.027 C 
BRANCH  19  20
HETATM   20  C   UNL     1     -36.642  -7.726 -11.814  1.00  0.00     0.004 C 
BRANCH  20  21
HETATM   21  C   UNL     1     -37.842  -6.774 -11.764  1.00  0.00    -0.000 C 
BRANCH  21  22
HETATM   22  C   UNL     1     -37.388  -5.316 -11.904  1.00  0.00    -0.005 C 
HETATM   23  C   UNL     1     -37.547  -4.561 -10.587  1.00  0.00     0.005 C 
ENDBRANCH  21  22
ENDBRANCH  20  21
ENDBRANCH  19  20
ENDBRANCH  18  19
ENDBRANCH  16  17
ENDBRANCH  15  16
ENDBRANCH  13  14
ENDBRANCH  12  13
ENDBRANCH  10  11
ENDBRANCH   9  10
ENDBRANCH   7   8
ENDBRANCH   6   7
ENDBRANCH   5   6
ENDBRANCH   3   5
ENDBRANCH   1   3
TORSDOF 15
ENDMDL
MODEL 20
REMARK VINA RESULT:      -4.7     31.129     33.095
REMARK  15 active torsions:
REMARK  status: ('A' for Active; 'I' for Inactive)
REMARK    1  A    between atoms: O_1  and  C_22 
REMARK    2  A    between atoms: C_3  and  C_4 
REMARK    3  A    between atoms: C_3  and  C_5 
REMARK    4  A    between atoms: C_4  and  C_6 
REMARK    5  A    between atoms: C_5  and  C_7 
REMARK    6  A    between atoms: C_9  and  C_10 
REMARK    7  A    between atoms: C_9  and  C_13 
REMARK    8  A    between atoms: C_10  and  C_14 
REMARK    9  A    between atoms: C_11  and  C_12 
REMARK   10  A    between atoms: C_12  and  C_16 
REMARK   11  A    between atoms: C_13  and  C_22 
REMARK   12  A    between atoms: C_15  and  C_17 
REMARK   13  A    between atoms: C_15  and  C_20 
REMARK   14  A    between atoms: C_18  and  C_19 
REMARK   15  A    between atoms: C_18  and  C_21 
ROOT
HETATM    1  O   UNL     1     -34.087  -7.829 -14.497  1.00  0.00    -0.776 OA
HETATM    2  H   UNL     1     -33.468  -7.408 -13.884  1.00  0.00     0.167 HD
ENDROOT
BRANCH   1   3
HETATM    3  C   UNL     1     -35.337  -8.164 -14.114  1.00  0.00     0.139 C 
HETATM    4  O   UNL     1     -35.960  -9.014 -14.732  1.00  0.00    -0.650 OA
BRANCH   3   5
HETATM    5  C   UNL     1     -35.965  -7.480 -12.931  1.00  0.00     0.110 C 
BRANCH   5   6
HETATM    6  C   UNL     1     -34.932  -7.101 -11.859  1.00  0.00     0.014 C 
BRANCH   6   7
HETATM    7  C   UNL     1     -35.535  -7.048 -10.450  1.00  0.00     0.027 C 
BRANCH   7   8
HETATM    8  C   UNL     1     -36.637  -6.020 -10.407  1.00  0.00    -0.030 C 
HETATM    9  C   UNL     1     -37.947  -6.292 -10.255  1.00  0.00    -0.027 C 
BRANCH   9  10
HETATM   10  C   UNL     1     -38.540  -7.667 -10.078  1.00  0.00     0.053 C 
BRANCH  10  11
HETATM   11  C   UNL     1     -39.391  -7.741  -8.830  1.00  0.00    -0.027 C 
HETATM   12  C   UNL     1     -39.356  -8.685  -7.868  1.00  0.00    -0.027 C 
BRANCH  12  13
HETATM   13  C   UNL     1     -38.442  -9.882  -7.803  1.00  0.00     0.053 C 
BRANCH  13  14
HETATM   14  C   UNL     1     -37.768  -9.945  -6.453  1.00  0.00    -0.027 C 
HETATM   15  C   UNL     1     -36.579  -9.384  -6.154  1.00  0.00    -0.027 C 
BRANCH  15  16
HETATM   16  C   UNL     1     -35.727  -8.618  -7.131  1.00  0.00     0.053 C 
BRANCH  16  17
HETATM   17  C   UNL     1     -35.064  -7.432  -6.476  1.00  0.00    -0.027 C 
HETATM   18  C   UNL     1     -35.661  -6.240  -6.304  1.00  0.00    -0.030 C 
BRANCH  18  19
HETATM   19  C   UNL     1     -37.064  -5.908  -6.746  1.00  0.00     0.027 C 
BRANCH  19  20
HETATM   20  C   UNL     1     -37.871  -5.389  -5.552  1.00  0.00     0.004 C 
BRANCH  20  21
HETATM   21  C   UNL     1     -38.875  -6.439  -5.063  1.00  0.00    -0.000 C 
BRANCH  21  22
HETATM   22  C   UNL     1     -38.326  -7.197  -3.848  1.00  0.00    -0.005 C 
HETATM   23  C   UNL     1     -37.657  -6.245  -2.861  1.00  0.00     0.005 C 
ENDBRANCH  21  22
ENDBRANCH  20  21
ENDBRANCH  19  20
ENDBRANCH  18  19
ENDBRANCH  16  17
ENDBRANCH  15  16
ENDBRANCH  13  14
ENDBRANCH  12  13
ENDBRANCH  10  11
ENDBRANCH   9  10
ENDBRANCH   7   8
ENDBRANCH   6   7
ENDBRANCH   5   6
ENDBRANCH   3   5
ENDBRANCH   1   3
TORSDOF 15
ENDMDL
