MODEL 1
REMARK VINA RESULT:      -4.1      0.000      0.000
REMARK  19 active torsions:
REMARK  status: ('A' for Active; 'I' for Inactive)
REMARK    1  A    between atoms: O_1  and  C_22 
REMARK    2  A    between atoms: C_3  and  C_4 
REMARK    3  A    between atoms: C_3  and  C_5 
REMARK    4  A    between atoms: C_4  and  C_6 
REMARK    5  A    between atoms: C_5  and  C_7 
REMARK    6  A    between atoms: C_6  and  C_8 
REMARK    7  A    between atoms: C_7  and  C_9 
REMARK    8  A    between atoms: C_8  and  C_10 
REMARK    9  A    between atoms: C_9  and  C_11 
REMARK   10  A    between atoms: C_10  and  C_12 
REMARK   11  A    between atoms: C_11  and  C_13 
REMARK   12  A    between atoms: C_12  and  C_14 
REMARK   13  A    between atoms: C_13  and  C_15 
REMARK   14  A    between atoms: C_14  and  C_16 
REMARK   15  A    between atoms: C_15  and  C_17 
REMARK   16  A    between atoms: C_16  and  C_18 
REMARK   17  A    between atoms: C_17  and  C_19 
REMARK   18  A    between atoms: C_18  and  C_20 
REMARK   19  A    between atoms: C_20  and  C_22 
ROOT
HETATM    1  O   UNL     1      31.349   5.539 -12.832  1.00  0.00    -0.776 OA
HETATM    2  H   UNL     1      30.618   5.020 -12.468  1.00  0.00     0.167 HD
ENDROOT
BRANCH   1   3
HETATM    3  C   UNL     1      32.449   5.818 -12.100  1.00  0.00     0.139 C 
HETATM    4  O   UNL     1      32.785   5.063 -11.199  1.00  0.00    -0.650 OA
BRANCH   3   5
HETATM    5  C   UNL     1      33.242   7.071 -12.359  1.00  0.00     0.110 C 
BRANCH   5   6
HETATM    6  C   UNL     1      32.574   8.026 -13.366  1.00  0.00     0.010 C 
BRANCH   6   7
HETATM    7  C   UNL     1      33.528   8.778 -14.316  1.00  0.00     0.001 C 
BRANCH   7   8
HETATM    8  C   UNL     1      34.993   8.296 -14.282  1.00  0.00     0.000 C 
BRANCH   8   9
HETATM    9  C   UNL     1      35.368   7.268 -15.369  1.00  0.00     0.000 C 
BRANCH   9  10
HETATM   10  C   UNL     1      34.718   7.508 -16.746  1.00  0.00     0.000 C 
BRANCH  10  11
HETATM   11  C   UNL     1      33.924   6.313 -17.310  1.00  0.00     0.000 C 
BRANCH  11  12
HETATM   12  C   UNL     1      33.094   5.532 -16.272  1.00  0.00     0.000 C 
BRANCH  12  13
HETATM   13  C   UNL     1      31.566   5.686 -16.409  1.00  0.00     0.000 C 
BRANCH  13  14
HETATM   14  C   UNL     1      31.081   6.182 -17.786  1.00  0.00     0.000 C 
BRANCH  14  15
HETATM   15  C   UNL     1      30.646   7.660 -17.831  1.00  0.00     0.000 C 
BRANCH  15  16
HETATM   16  C   UNL     1      31.363   8.520 -18.892  1.00  0.00     0.000 C 
BRANCH  16  17
HETATM   17  C   UNL     1      30.512   8.873 -20.129  1.00  0.00     0.000 C 
BRANCH  17  18
HETATM   18  C   UNL     1      30.967   8.211 -21.444  1.00  0.00     0.000 C 
BRANCH  18  19
HETATM   19  C   UNL     1      30.544   6.738 -21.613  1.00  0.00     0.000 C 
BRANCH  19  20
HETATM   20  C   UNL     1      31.693   5.762 -21.936  1.00  0.00     0.000 C 
BRANCH  20  21
HETATM   21  C   UNL     1      32.807   5.689 -20.871  1.00  0.00    -0.000 C 
BRANCH  21  22
HETATM   22  C   UNL     1      34.178   6.225 -21.320  1.00  0.00    -0.005 C 
HETATM   23  C   UNL     1      34.521   7.586 -20.717  1.00  0.00     0.005 C 
ENDBRANCH  21  22
ENDBRANCH  20  21
ENDBRANCH  19  20
ENDBRANCH  18  19
ENDBRANCH  17  18
ENDBRANCH  16  17
ENDBRANCH  15  16
ENDBRANCH  14  15
ENDBRANCH  13  14
ENDBRANCH  12  13
ENDBRANCH  11  12
ENDBRANCH  10  11
ENDBRANCH   9  10
ENDBRANCH   8   9
ENDBRANCH   7   8
ENDBRANCH   6   7
ENDBRANCH   5   6
ENDBRANCH   3   5
ENDBRANCH   1   3
TORSDOF 19
ENDMDL
MODEL 2
REMARK VINA RESULT:      -4.1     29.078     31.392
REMARK  19 active torsions:
REMARK  status: ('A' for Active; 'I' for Inactive)
REMARK    1  A    between atoms: O_1  and  C_22 
REMARK    2  A    between atoms: C_3  and  C_4 
REMARK    3  A    between atoms: C_3  and  C_5 
REMARK    4  A    between atoms: C_4  and  C_6 
REMARK    5  A    between atoms: C_5  and  C_7 
REMARK    6  A    between atoms: C_6  and  C_8 
REMARK    7  A    between atoms: C_7  and  C_9 
REMARK    8  A    between atoms: C_8  and  C_10 
REMARK    9  A    between atoms: C_9  and  C_11 
REMARK   10  A    between atoms: C_10  and  C_12 
REMARK   11  A    between atoms: C_11  and  C_13 
REMARK   12  A    between atoms: C_12  and  C_14 
REMARK   13  A    between atoms: C_13  and  C_15 
REMARK   14  A    between atoms: C_14  and  C_16 
REMARK   15  A    between atoms: C_15  and  C_17 
REMARK   16  A    between atoms: C_16  and  C_18 
REMARK   17  A    between atoms: C_17  and  C_19 
REMARK   18  A    between atoms: C_18  and  C_20 
REMARK   19  A    between atoms: C_20  and  C_22 
ROOT
HETATM    1  O   UNL     1      48.801 -16.452 -17.865  1.00  0.00    -0.776 OA
HETATM    2  H   UNL     1      48.955 -15.793 -17.173  1.00  0.00     0.167 HD
ENDROOT
BRANCH   1   3
HETATM    3  C   UNL     1      48.227 -17.642 -17.592  1.00  0.00     0.139 C 
HETATM    4  O   UNL     1      47.166 -17.939 -18.122  1.00  0.00    -0.650 OA
BRANCH   3   5
HETATM    5  C   UNL     1      48.862 -18.589 -16.608  1.00  0.00     0.110 C 
BRANCH   5   6
HETATM    6  C   UNL     1      48.349 -18.416 -15.167  1.00  0.00     0.010 C 
BRANCH   6   7
HETATM    7  C   UNL     1      49.159 -19.143 -14.073  1.00  0.00     0.001 C 
BRANCH   7   8
HETATM    8  C   UNL     1      48.512 -19.136 -12.673  1.00  0.00     0.000 C 
BRANCH   8   9
HETATM    9  C   UNL     1      46.991 -19.386 -12.655  1.00  0.00     0.000 C 
BRANCH   9  10
HETATM   10  C   UNL     1      46.534 -20.569 -11.779  1.00  0.00     0.000 C 
BRANCH  10  11
HETATM   11  C   UNL     1      47.671 -21.337 -11.076  1.00  0.00     0.000 C 
BRANCH  11  12
HETATM   12  C   UNL     1      47.563 -21.400  -9.539  1.00  0.00     0.000 C 
BRANCH  12  13
HETATM   13  C   UNL     1      48.790 -20.863  -8.776  1.00  0.00     0.000 C 
BRANCH  13  14
HETATM   14  C   UNL     1      49.215 -19.429  -9.151  1.00  0.00     0.000 C 
BRANCH  14  15
HETATM   15  C   UNL     1      48.987 -18.373  -8.051  1.00  0.00     0.000 C 
BRANCH  15  16
HETATM   16  C   UNL     1      48.026 -17.228  -8.434  1.00  0.00     0.000 C 
BRANCH  16  17
HETATM   17  C   UNL     1      47.074 -17.542  -9.606  1.00  0.00     0.000 C 
BRANCH  17  18
HETATM   18  C   UNL     1      45.587 -17.674  -9.221  1.00  0.00     0.000 C 
BRANCH  18  19
HETATM   19  C   UNL     1      45.214 -18.984  -8.499  1.00  0.00     0.000 C 
BRANCH  19  20
HETATM   20  C   UNL     1      45.231 -18.909  -6.959  1.00  0.00     0.000 C 
BRANCH  20  21
HETATM   21  C   UNL     1      46.158 -19.929  -6.267  1.00  0.00    -0.000 C 
BRANCH  21  22
HETATM   22  C   UNL     1      46.931 -19.391  -5.049  1.00  0.00    -0.005 C 
HETATM   23  C   UNL     1      46.915 -17.867  -4.950  1.00  0.00     0.005 C 
ENDBRANCH  21  22
ENDBRANCH  20  21
ENDBRANCH  19  20
ENDBRANCH  18  19
ENDBRANCH  17  18
ENDBRANCH  16  17
ENDBRANCH  15  16
ENDBRANCH  14  15
ENDBRANCH  13  14
ENDBRANCH  12  13
ENDBRANCH  11  12
ENDBRANCH  10  11
ENDBRANCH   9  10
ENDBRANCH   8   9
ENDBRANCH   7   8
ENDBRANCH   6   7
ENDBRANCH   5   6
ENDBRANCH   3   5
ENDBRANCH   1   3
TORSDOF 19
ENDMDL
MODEL 3
REMARK VINA RESULT:      -4.0      7.829     10.337
REMARK  19 active torsions:
REMARK  status: ('A' for Active; 'I' for Inactive)
REMARK    1  A    between atoms: O_1  and  C_22 
REMARK    2  A    between atoms: C_3  and  C_4 
REMARK    3  A    between atoms: C_3  and  C_5 
REMARK    4  A    between atoms: C_4  and  C_6 
REMARK    5  A    between atoms: C_5  and  C_7 
REMARK    6  A    between atoms: C_6  and  C_8 
REMARK    7  A    between atoms: C_7  and  C_9 
REMARK    8  A    between atoms: C_8  and  C_10 
REMARK    9  A    between atoms: C_9  and  C_11 
REMARK   10  A    between atoms: C_10  and  C_12 
REMARK   11  A    between atoms: C_11  and  C_13 
REMARK   12  A    between atoms: C_12  and  C_14 
REMARK   13  A    between atoms: C_13  and  C_15 
REMARK   14  A    between atoms: C_14  and  C_16 
REMARK   15  A    between atoms: C_15  and  C_17 
REMARK   16  A    between atoms: C_16  and  C_18 
REMARK   17  A    between atoms: C_17  and  C_19 
REMARK   18  A    between atoms: C_18  and  C_20 
REMARK   19  A    between atoms: C_20  and  C_22 
ROOT
HETATM    1  O   UNL     1      23.329  12.090  -9.435  1.00  0.00    -0.776 OA
HETATM    2  H   UNL     1      22.786  11.322  -9.661  1.00  0.00     0.167 HD
ENDROOT
BRANCH   1   3
HETATM    3  C   UNL     1      24.458  11.965  -8.705  1.00  0.00     0.139 C 
HETATM    4  O   UNL     1      24.382  11.744  -7.505  1.00  0.00    -0.650 OA
BRANCH   3   5
HETATM    5  C   UNL     1      25.807  12.137  -9.350  1.00  0.00     0.110 C 
BRANCH   5   6
HETATM    6  C   UNL     1      25.749  12.242 -10.885  1.00  0.00     0.010 C 
BRANCH   6   7
HETATM    7  C   UNL     1      25.727  10.904 -11.652  1.00  0.00     0.001 C 
BRANCH   7   8
HETATM    8  C   UNL     1      25.318  11.010 -13.135  1.00  0.00     0.000 C 
BRANCH   8   9
HETATM    9  C   UNL     1      24.110  11.927 -13.415  1.00  0.00     0.000 C 
BRANCH   9  10
HETATM   10  C   UNL     1      23.902  12.298 -14.896  1.00  0.00     0.000 C 
BRANCH  10  11
HETATM   11  C   UNL     1      24.946  11.713 -15.868  1.00  0.00     0.000 C 
BRANCH  11  12
HETATM   12  C   UNL     1      24.643  11.936 -17.364  1.00  0.00     0.000 C 
BRANCH  12  13
HETATM   13  C   UNL     1      25.879  12.184 -18.250  1.00  0.00     0.000 C 
BRANCH  13  14
HETATM   14  C   UNL     1      27.184  12.475 -17.484  1.00  0.00     0.000 C 
BRANCH  14  15
HETATM   15  C   UNL     1      27.489  13.970 -17.257  1.00  0.00     0.000 C 
BRANCH  15  16
HETATM   16  C   UNL     1      28.239  14.293 -15.949  1.00  0.00     0.000 C 
BRANCH  16  17
HETATM   17  C   UNL     1      28.020  13.281 -14.806  1.00  0.00     0.000 C 
BRANCH  17  18
HETATM   18  C   UNL     1      27.569  13.898 -13.466  1.00  0.00     0.000 C 
BRANCH  18  19
HETATM   19  C   UNL     1      28.714  14.332 -12.530  1.00  0.00     0.000 C 
BRANCH  19  20
HETATM   20  C   UNL     1      29.072  13.319 -11.423  1.00  0.00     0.000 C 
BRANCH  20  21
HETATM   21  C   UNL     1      29.966  12.147 -11.877  1.00  0.00    -0.000 C 
BRANCH  21  22
HETATM   22  C   UNL     1      29.424  10.744 -11.547  1.00  0.00    -0.005 C 
HETATM   23  C   UNL     1      29.238  10.506 -10.050  1.00  0.00     0.005 C 
ENDBRANCH  21  22
ENDBRANCH  20  21
ENDBRANCH  19  20
ENDBRANCH  18  19
ENDBRANCH  17  18
ENDBRANCH  16  17
ENDBRANCH  15  16
ENDBRANCH  14  15
ENDBRANCH  13  14
ENDBRANCH  12  13
ENDBRANCH  11  12
ENDBRANCH  10  11
ENDBRANCH   9  10
ENDBRANCH   8   9
ENDBRANCH   7   8
ENDBRANCH   6   7
ENDBRANCH   5   6
ENDBRANCH   3   5
ENDBRANCH   1   3
TORSDOF 19
ENDMDL
MODEL 4
REMARK VINA RESULT:      -4.0      8.048     11.064
REMARK  19 active torsions:
REMARK  status: ('A' for Active; 'I' for Inactive)
REMARK    1  A    between atoms: O_1  and  C_22 
REMARK    2  A    between atoms: C_3  and  C_4 
REMARK    3  A    between atoms: C_3  and  C_5 
REMARK    4  A    between atoms: C_4  and  C_6 
REMARK    5  A    between atoms: C_5  and  C_7 
REMARK    6  A    between atoms: C_6  and  C_8 
REMARK    7  A    between atoms: C_7  and  C_9 
REMARK    8  A    between atoms: C_8  and  C_10 
REMARK    9  A    between atoms: C_9  and  C_11 
REMARK   10  A    between atoms: C_10  and  C_12 
REMARK   11  A    between atoms: C_11  and  C_13 
REMARK   12  A    between atoms: C_12  and  C_14 
REMARK   13  A    between atoms: C_13  and  C_15 
REMARK   14  A    between atoms: C_14  and  C_16 
REMARK   15  A    between atoms: C_15  and  C_17 
REMARK   16  A    between atoms: C_16  and  C_18 
REMARK   17  A    between atoms: C_17  and  C_19 
REMARK   18  A    between atoms: C_18  and  C_20 
REMARK   19  A    between atoms: C_20  and  C_22 
ROOT
HETATM    1  O   UNL     1      23.233  11.628 -14.129  1.00  0.00    -0.776 OA
HETATM    2  H   UNL     1      23.157  11.007 -13.390  1.00  0.00     0.167 HD
ENDROOT
BRANCH   1   3
HETATM    3  C   UNL     1      24.414  12.191 -14.460  1.00  0.00     0.139 C 
HETATM    4  O   UNL     1      24.677  12.402 -15.635  1.00  0.00    -0.650 OA
BRANCH   3   5
HETATM    5  C   UNL     1      25.425  12.524 -13.396  1.00  0.00     0.110 C 
BRANCH   5   6
HETATM    6  C   UNL     1      25.950  11.293 -12.635  1.00  0.00     0.010 C 
BRANCH   6   7
HETATM    7  C   UNL     1      25.430  11.119 -11.193  1.00  0.00     0.001 C 
BRANCH   7   8
HETATM    8  C   UNL     1      24.419  12.190 -10.733  1.00  0.00     0.000 C 
BRANCH   8   9
HETATM    9  C   UNL     1      23.784  11.936  -9.351  1.00  0.00     0.000 C 
BRANCH   9  10
HETATM   10  C   UNL     1      24.734  11.338  -8.296  1.00  0.00     0.000 C 
BRANCH  10  11
HETATM   11  C   UNL     1      25.673  12.353  -7.613  1.00  0.00     0.000 C 
BRANCH  11  12
HETATM   12  C   UNL     1      27.132  12.329  -8.110  1.00  0.00     0.000 C 
BRANCH  12  13
HETATM   13  C   UNL     1      27.833  13.702  -8.142  1.00  0.00     0.000 C 
BRANCH  13  14
HETATM   14  C   UNL     1      28.622  14.002  -9.433  1.00  0.00     0.000 C 
BRANCH  14  15
HETATM   15  C   UNL     1      27.789  13.964 -10.730  1.00  0.00     0.000 C 
BRANCH  15  16
HETATM   16  C   UNL     1      28.226  14.968 -11.816  1.00  0.00     0.000 C 
BRANCH  16  17
HETATM   17  C   UNL     1      28.364  14.377 -13.233  1.00  0.00     0.000 C 
BRANCH  17  18
HETATM   18  C   UNL     1      29.657  13.575 -13.484  1.00  0.00     0.000 C 
BRANCH  18  19
HETATM   19  C   UNL     1      29.463  12.242 -14.234  1.00  0.00     0.000 C 
BRANCH  19  20
HETATM   20  C   UNL     1      29.557  10.979 -13.355  1.00  0.00     0.000 C 
BRANCH  20  21
HETATM   21  C   UNL     1      30.706  10.984 -12.325  1.00  0.00    -0.000 C 
BRANCH  21  22
HETATM   22  C   UNL     1      30.266  11.093 -10.854  1.00  0.00    -0.005 C 
HETATM   23  C   UNL     1      29.004  10.291 -10.541  1.00  0.00     0.005 C 
ENDBRANCH  21  22
ENDBRANCH  20  21
ENDBRANCH  19  20
ENDBRANCH  18  19
ENDBRANCH  17  18
ENDBRANCH  16  17
ENDBRANCH  15  16
ENDBRANCH  14  15
ENDBRANCH  13  14
ENDBRANCH  12  13
ENDBRANCH  11  12
ENDBRANCH  10  11
ENDBRANCH   9  10
ENDBRANCH   8   9
ENDBRANCH   7   8
ENDBRANCH   6   7
ENDBRANCH   5   6
ENDBRANCH   3   5
ENDBRANCH   1   3
TORSDOF 19
ENDMDL
MODEL 5
REMARK VINA RESULT:      -4.0      3.018      7.925
REMARK  19 active torsions:
REMARK  status: ('A' for Active; 'I' for Inactive)
REMARK    1  A    between atoms: O_1  and  C_22 
REMARK    2  A    between atoms: C_3  and  C_4 
REMARK    3  A    between atoms: C_3  and  C_5 
REMARK    4  A    between atoms: C_4  and  C_6 
REMARK    5  A    between atoms: C_5  and  C_7 
REMARK    6  A    between atoms: C_6  and  C_8 
REMARK    7  A    between atoms: C_7  and  C_9 
REMARK    8  A    between atoms: C_8  and  C_10 
REMARK    9  A    between atoms: C_9  and  C_11 
REMARK   10  A    between atoms: C_10  and  C_12 
REMARK   11  A    between atoms: C_11  and  C_13 
REMARK   12  A    between atoms: C_12  and  C_14 
REMARK   13  A    between atoms: C_13  and  C_15 
REMARK   14  A    between atoms: C_14  and  C_16 
REMARK   15  A    between atoms: C_15  and  C_17 
REMARK   16  A    between atoms: C_16  and  C_18 
REMARK   17  A    between atoms: C_17  and  C_19 
REMARK   18  A    between atoms: C_18  and  C_20 
REMARK   19  A    between atoms: C_20  and  C_22 
ROOT
HETATM    1  O   UNL     1      34.482   5.756 -21.389  1.00  0.00    -0.776 OA
HETATM    2  H   UNL     1      33.766   5.893 -22.025  1.00  0.00     0.167 HD
ENDROOT
BRANCH   1   3
HETATM    3  C   UNL     1      34.571   6.489 -20.259  1.00  0.00     0.139 C 
HETATM    4  O   UNL     1      35.636   6.556 -19.663  1.00  0.00    -0.650 OA
BRANCH   3   5
HETATM    5  C   UNL     1      33.359   7.191 -19.707  1.00  0.00     0.110 C 
BRANCH   5   6
HETATM    6  C   UNL     1      32.042   6.431 -19.949  1.00  0.00     0.010 C 
BRANCH   6   7
HETATM    7  C   UNL     1      30.769   7.093 -19.383  1.00  0.00     0.001 C 
BRANCH   7   8
HETATM    8  C   UNL     1      30.877   7.564 -17.918  1.00  0.00     0.000 C 
BRANCH   8   9
HETATM    9  C   UNL     1      30.537   6.493 -16.862  1.00  0.00     0.000 C 
BRANCH   9  10
HETATM   10  C   UNL     1      31.622   6.265 -15.791  1.00  0.00     0.000 C 
BRANCH  10  11
HETATM   11  C   UNL     1      32.834   5.433 -16.256  1.00  0.00     0.000 C 
BRANCH  11  12
HETATM   12  C   UNL     1      34.200   6.136 -16.118  1.00  0.00     0.000 C 
BRANCH  12  13
HETATM   13  C   UNL     1      34.144   7.676 -16.117  1.00  0.00     0.000 C 
BRANCH  13  14
HETATM   14  C   UNL     1      34.639   8.346 -14.819  1.00  0.00     0.000 C 
BRANCH  14  15
HETATM   15  C   UNL     1      34.386   7.538 -13.530  1.00  0.00     0.000 C 
BRANCH  15  16
HETATM   16  C   UNL     1      34.556   8.331 -12.219  1.00  0.00     0.000 C 
BRANCH  16  17
HETATM   17  C   UNL     1      35.385   7.620 -11.130  1.00  0.00     0.000 C 
BRANCH  17  18
HETATM   18  C   UNL     1      34.690   6.416 -10.462  1.00  0.00     0.000 C 
BRANCH  18  19
HETATM   19  C   UNL     1      33.458   6.768  -9.605  1.00  0.00     0.000 C 
BRANCH  19  20
HETATM   20  C   UNL     1      32.164   6.022  -9.985  1.00  0.00     0.000 C 
BRANCH  20  21
HETATM   21  C   UNL     1      32.083   5.562 -11.456  1.00  0.00    -0.000 C 
BRANCH  21  22
HETATM   22  C   UNL     1      30.968   6.220 -12.288  1.00  0.00    -0.005 C 
HETATM   23  C   UNL     1      30.786   7.706 -11.983  1.00  0.00     0.005 C 
ENDBRANCH  21  22
ENDBRANCH  20  21
ENDBRANCH  19  20
ENDBRANCH  18  19
ENDBRANCH  17  18
ENDBRANCH  16  17
ENDBRANCH  15  16
ENDBRANCH  14  15
ENDBRANCH  13  14
ENDBRANCH  12  13
ENDBRANCH  11  12
ENDBRANCH  10  11
ENDBRANCH   9  10
ENDBRANCH   8   9
ENDBRANCH   7   8
ENDBRANCH   6   7
ENDBRANCH   5   6
ENDBRANCH   3   5
ENDBRANCH   1   3
TORSDOF 19
ENDMDL
MODEL 6
REMARK VINA RESULT:      -3.9      8.616     11.278
REMARK  19 active torsions:
REMARK  status: ('A' for Active; 'I' for Inactive)
REMARK    1  A    between atoms: O_1  and  C_22 
REMARK    2  A    between atoms: C_3  and  C_4 
REMARK    3  A    between atoms: C_3  and  C_5 
REMARK    4  A    between atoms: C_4  and  C_6 
REMARK    5  A    between atoms: C_5  and  C_7 
REMARK    6  A    between atoms: C_6  and  C_8 
REMARK    7  A    between atoms: C_7  and  C_9 
REMARK    8  A    between atoms: C_8  and  C_10 
REMARK    9  A    between atoms: C_9  and  C_11 
REMARK   10  A    between atoms: C_10  and  C_12 
REMARK   11  A    between atoms: C_11  and  C_13 
REMARK   12  A    between atoms: C_12  and  C_14 
REMARK   13  A    between atoms: C_13  and  C_15 
REMARK   14  A    between atoms: C_14  and  C_16 
REMARK   15  A    between atoms: C_15  and  C_17 
REMARK   16  A    between atoms: C_16  and  C_18 
REMARK   17  A    between atoms: C_17  and  C_19 
REMARK   18  A    between atoms: C_18  and  C_20 
REMARK   19  A    between atoms: C_20  and  C_22 
ROOT
HETATM    1  O   UNL     1      24.590  12.739 -22.570  1.00  0.00    -0.776 OA
HETATM    2  H   UNL     1      24.806  13.512 -23.110  1.00  0.00     0.167 HD
ENDROOT
BRANCH   1   3
HETATM    3  C   UNL     1      25.409  12.315 -21.585  1.00  0.00     0.139 C 
HETATM    4  O   UNL     1      26.596  12.604 -21.618  1.00  0.00    -0.650 OA
BRANCH   3   5
HETATM    5  C   UNL     1      24.879  11.457 -20.468  1.00  0.00     0.110 C 
BRANCH   5   6
HETATM    6  C   UNL     1      23.880  12.186 -19.550  1.00  0.00     0.010 C 
BRANCH   6   7
HETATM    7  C   UNL     1      24.009  11.887 -18.042  1.00  0.00     0.001 C 
BRANCH   7   8
HETATM    8  C   UNL     1      25.275  11.104 -17.640  1.00  0.00     0.000 C 
BRANCH   8   9
HETATM    9  C   UNL     1      25.622  11.152 -16.138  1.00  0.00     0.000 C 
BRANCH   9  10
HETATM   10  C   UNL     1      24.733  12.084 -15.292  1.00  0.00     0.000 C 
BRANCH  10  11
HETATM   11  C   UNL     1      23.977  11.395 -14.138  1.00  0.00     0.000 C 
BRANCH  11  12
HETATM   12  C   UNL     1      24.452  11.783 -12.723  1.00  0.00     0.000 C 
BRANCH  12  13
HETATM   13  C   UNL     1      25.764  12.589 -12.673  1.00  0.00     0.000 C 
BRANCH  13  14
HETATM   14  C   UNL     1      26.996  11.802 -12.184  1.00  0.00     0.000 C 
BRANCH  14  15
HETATM   15  C   UNL     1      28.188  11.782 -13.162  1.00  0.00     0.000 C 
BRANCH  15  16
HETATM   16  C   UNL     1      28.220  12.943 -14.177  1.00  0.00     0.000 C 
BRANCH  16  17
HETATM   17  C   UNL     1      28.702  14.293 -13.607  1.00  0.00     0.000 C 
BRANCH  17  18
HETATM   18  C   UNL     1      30.061  14.781 -14.146  1.00  0.00     0.000 C 
BRANCH  18  19
HETATM   19  C   UNL     1      29.988  15.621 -15.436  1.00  0.00     0.000 C 
BRANCH  19  20
HETATM   20  C   UNL     1      29.402  17.037 -15.262  1.00  0.00     0.000 C 
BRANCH  20  21
HETATM   21  C   UNL     1      28.723  17.622 -16.518  1.00  0.00    -0.000 C 
BRANCH  21  22
HETATM   22  C   UNL     1      29.240  17.070 -17.859  1.00  0.00    -0.005 C 
HETATM   23  C   UNL     1      29.220  18.103 -18.984  1.00  0.00     0.005 C 
ENDBRANCH  21  22
ENDBRANCH  20  21
ENDBRANCH  19  20
ENDBRANCH  18  19
ENDBRANCH  17  18
ENDBRANCH  16  17
ENDBRANCH  15  16
ENDBRANCH  14  15
ENDBRANCH  13  14
ENDBRANCH  12  13
ENDBRANCH  11  12
ENDBRANCH  10  11
ENDBRANCH   9  10
ENDBRANCH   8   9
ENDBRANCH   7   8
ENDBRANCH   6   7
ENDBRANCH   5   6
ENDBRANCH   3   5
ENDBRANCH   1   3
TORSDOF 19
ENDMDL
MODEL 7
REMARK VINA RESULT:      -3.9     29.541     31.885
REMARK  19 active torsions:
REMARK  status: ('A' for Active; 'I' for Inactive)
REMARK    1  A    between atoms: O_1  and  C_22 
REMARK    2  A    between atoms: C_3  and  C_4 
REMARK    3  A    between atoms: C_3  and  C_5 
REMARK    4  A    between atoms: C_4  and  C_6 
REMARK    5  A    between atoms: C_5  and  C_7 
REMARK    6  A    between atoms: C_6  and  C_8 
REMARK    7  A    between atoms: C_7  and  C_9 
REMARK    8  A    between atoms: C_8  and  C_10 
REMARK    9  A    between atoms: C_9  and  C_11 
REMARK   10  A    between atoms: C_10  and  C_12 
REMARK   11  A    between atoms: C_11  and  C_13 
REMARK   12  A    between atoms: C_12  and  C_14 
REMARK   13  A    between atoms: C_13  and  C_15 
REMARK   14  A    between atoms: C_14  and  C_16 
REMARK   15  A    between atoms: C_15  and  C_17 
REMARK   16  A    between atoms: C_16  and  C_18 
REMARK   17  A    between atoms: C_17  and  C_19 
REMARK   18  A    between atoms: C_18  and  C_20 
REMARK   19  A    between atoms: C_20  and  C_22 
ROOT
HETATM    1  O   UNL     1      49.137 -16.820 -17.869  1.00  0.00    -0.776 OA
HETATM    2  H   UNL     1      49.406 -16.450 -17.016  1.00  0.00     0.167 HD
ENDROOT
BRANCH   1   3
HETATM    3  C   UNL     1      48.277 -17.857 -17.948  1.00  0.00     0.139 C 
HETATM    4  O   UNL     1      47.164 -17.687 -18.425  1.00  0.00    -0.650 OA
BRANCH   3   5
HETATM    5  C   UNL     1      48.664 -19.212 -17.417  1.00  0.00     0.110 C 
BRANCH   5   6
HETATM    6  C   UNL     1      48.342 -19.404 -15.924  1.00  0.00     0.010 C 
BRANCH   6   7
HETATM    7  C   UNL     1      49.324 -18.748 -14.933  1.00  0.00     0.001 C 
BRANCH   7   8
HETATM    8  C   UNL     1      49.058 -19.063 -13.447  1.00  0.00     0.000 C 
BRANCH   8   9
HETATM    9  C   UNL     1      48.824 -17.831 -12.550  1.00  0.00     0.000 C 
BRANCH   9  10
HETATM   10  C   UNL     1      47.474 -17.811 -11.807  1.00  0.00     0.000 C 
BRANCH  10  11
HETATM   11  C   UNL     1      46.390 -18.734 -12.399  1.00  0.00     0.000 C 
BRANCH  11  12
HETATM   12  C   UNL     1      45.761 -19.727 -11.400  1.00  0.00     0.000 C 
BRANCH  12  13
HETATM   13  C   UNL     1      46.281 -21.174 -11.504  1.00  0.00     0.000 C 
BRANCH  13  14
HETATM   14  C   UNL     1      47.687 -21.407 -10.916  1.00  0.00     0.000 C 
BRANCH  14  15
HETATM   15  C   UNL     1      47.733 -21.586  -9.386  1.00  0.00     0.000 C 
BRANCH  15  16
HETATM   16  C   UNL     1      48.870 -20.827  -8.673  1.00  0.00     0.000 C 
BRANCH  16  17
HETATM   17  C   UNL     1      49.224 -19.456  -9.285  1.00  0.00     0.000 C 
BRANCH  17  18
HETATM   18  C   UNL     1      49.086 -18.258  -8.325  1.00  0.00     0.000 C 
BRANCH  18  19
HETATM   19  C   UNL     1      47.745 -18.177  -7.570  1.00  0.00     0.000 C 
BRANCH  19  20
HETATM   20  C   UNL     1      47.863 -17.907  -6.057  1.00  0.00     0.000 C 
BRANCH  20  21
HETATM   21  C   UNL     1      48.468 -19.063  -5.233  1.00  0.00    -0.000 C 
BRANCH  21  22
HETATM   22  C   UNL     1      47.470 -20.152  -4.801  1.00  0.00    -0.005 C 
HETATM   23  C   UNL     1      47.869 -21.553  -5.262  1.00  0.00     0.005 C 
ENDBRANCH  21  22
ENDBRANCH  20  21
ENDBRANCH  19  20
ENDBRANCH  18  19
ENDBRANCH  17  18
ENDBRANCH  16  17
ENDBRANCH  15  16
ENDBRANCH  14  15
ENDBRANCH  13  14
ENDBRANCH  12  13
ENDBRANCH  11  12
ENDBRANCH  10  11
ENDBRANCH   9  10
ENDBRANCH   8   9
ENDBRANCH   7   8
ENDBRANCH   6   7
ENDBRANCH   5   6
ENDBRANCH   3   5
ENDBRANCH   1   3
TORSDOF 19
ENDMDL
MODEL 8
REMARK VINA RESULT:      -3.9      9.911     12.983
REMARK  19 active torsions:
REMARK  status: ('A' for Active; 'I' for Inactive)
REMARK    1  A    between atoms: O_1  and  C_22 
REMARK    2  A    between atoms: C_3  and  C_4 
REMARK    3  A    between atoms: C_3  and  C_5 
REMARK    4  A    between atoms: C_4  and  C_6 
REMARK    5  A    between atoms: C_5  and  C_7 
REMARK    6  A    between atoms: C_6  and  C_8 
REMARK    7  A    between atoms: C_7  and  C_9 
REMARK    8  A    between atoms: C_8  and  C_10 
REMARK    9  A    between atoms: C_9  and  C_11 
REMARK   10  A    between atoms: C_10  and  C_12 
REMARK   11  A    between atoms: C_11  and  C_13 
REMARK   12  A    between atoms: C_12  and  C_14 
REMARK   13  A    between atoms: C_13  and  C_15 
REMARK   14  A    between atoms: C_14  and  C_16 
REMARK   15  A    between atoms: C_15  and  C_17 
REMARK   16  A    between atoms: C_16  and  C_18 
REMARK   17  A    between atoms: C_17  and  C_19 
REMARK   18  A    between atoms: C_18  and  C_20 
REMARK   19  A    between atoms: C_20  and  C_22 
ROOT
HETATM    1  O   UNL     1      23.154  11.726 -14.156  1.00  0.00    -0.776 OA
HETATM    2  H   UNL     1      23.039  11.087 -13.438  1.00  0.00     0.167 HD
ENDROOT
BRANCH   1   3
HETATM    3  C   UNL     1      24.360  12.262 -14.437  1.00  0.00     0.139 C 
HETATM    4  O   UNL     1      24.656  12.516 -15.596  1.00  0.00    -0.650 OA
BRANCH   3   5
HETATM    5  C   UNL     1      25.358  12.514 -13.338  1.00  0.00     0.110 C 
BRANCH   5   6
HETATM    6  C   UNL     1      25.855  11.230 -12.650  1.00  0.00     0.010 C 
BRANCH   6   7
HETATM    7  C   UNL     1      25.391  11.023 -11.193  1.00  0.00     0.001 C 
BRANCH   7   8
HETATM    8  C   UNL     1      24.504  12.151 -10.627  1.00  0.00     0.000 C 
BRANCH   8   9
HETATM    9  C   UNL     1      23.733  11.791  -9.341  1.00  0.00     0.000 C 
BRANCH   9  10
HETATM   10  C   UNL     1      24.604  11.270  -8.181  1.00  0.00     0.000 C 
BRANCH  10  11
HETATM   11  C   UNL     1      25.318  12.361  -7.359  1.00  0.00     0.000 C 
BRANCH  11  12
HETATM   12  C   UNL     1      26.769  12.659  -7.789  1.00  0.00     0.000 C 
BRANCH  12  13
HETATM   13  C   UNL     1      27.503  13.705  -6.927  1.00  0.00     0.000 C 
BRANCH  13  14
HETATM   14  C   UNL     1      28.298  14.761  -7.720  1.00  0.00     0.000 C 
BRANCH  14  15
HETATM   15  C   UNL     1      28.750  15.987  -6.901  1.00  0.00     0.000 C 
BRANCH  15  16
HETATM   16  C   UNL     1      30.027  16.682  -7.416  1.00  0.00     0.000 C 
BRANCH  16  17
HETATM   17  C   UNL     1      29.789  18.003  -8.175  1.00  0.00     0.000 C 
BRANCH  17  18
HETATM   18  C   UNL     1      28.930  17.878  -9.450  1.00  0.00     0.000 C 
BRANCH  18  19
HETATM   19  C   UNL     1      29.665  17.306 -10.678  1.00  0.00     0.000 C 
BRANCH  19  20
HETATM   20  C   UNL     1      28.749  16.782 -11.802  1.00  0.00     0.000 C 
BRANCH  20  21
HETATM   21  C   UNL     1      28.873  15.272 -12.093  1.00  0.00    -0.000 C 
BRANCH  21  22
HETATM   22  C   UNL     1      28.108  14.353 -11.124  1.00  0.00    -0.005 C 
HETATM   23  C   UNL     1      28.631  12.917 -11.115  1.00  0.00     0.005 C 
ENDBRANCH  21  22
ENDBRANCH  20  21
ENDBRANCH  19  20
ENDBRANCH  18  19
ENDBRANCH  17  18
ENDBRANCH  16  17
ENDBRANCH  15  16
ENDBRANCH  14  15
ENDBRANCH  13  14
ENDBRANCH  12  13
ENDBRANCH  11  12
ENDBRANCH  10  11
ENDBRANCH   9  10
ENDBRANCH   8   9
ENDBRANCH   7   8
ENDBRANCH   6   7
ENDBRANCH   5   6
ENDBRANCH   3   5
ENDBRANCH   1   3
TORSDOF 19
ENDMDL
MODEL 9
REMARK VINA RESULT:      -3.8      5.469      8.536
REMARK  19 active torsions:
REMARK  status: ('A' for Active; 'I' for Inactive)
REMARK    1  A    between atoms: O_1  and  C_22 
REMARK    2  A    between atoms: C_3  and  C_4 
REMARK    3  A    between atoms: C_3  and  C_5 
REMARK    4  A    between atoms: C_4  and  C_6 
REMARK    5  A    between atoms: C_5  and  C_7 
REMARK    6  A    between atoms: C_6  and  C_8 
REMARK    7  A    between atoms: C_7  and  C_9 
REMARK    8  A    between atoms: C_8  and  C_10 
REMARK    9  A    between atoms: C_9  and  C_11 
REMARK   10  A    between atoms: C_10  and  C_12 
REMARK   11  A    between atoms: C_11  and  C_13 
REMARK   12  A    between atoms: C_12  and  C_14 
REMARK   13  A    between atoms: C_13  and  C_15 
REMARK   14  A    between atoms: C_14  and  C_16 
REMARK   15  A    between atoms: C_15  and  C_17 
REMARK   16  A    between atoms: C_16  and  C_18 
REMARK   17  A    between atoms: C_17  and  C_19 
REMARK   18  A    between atoms: C_18  and  C_20 
REMARK   19  A    between atoms: C_20  and  C_22 
ROOT
HETATM    1  O   UNL     1      33.573   8.319 -18.729  1.00  0.00    -0.776 OA
HETATM    2  H   UNL     1      34.109   8.958 -18.238  1.00  0.00     0.167 HD
ENDROOT
BRANCH   1   3
HETATM    3  C   UNL     1      33.483   7.029 -18.341  1.00  0.00     0.139 C 
HETATM    4  O   UNL     1      34.473   6.313 -18.383  1.00  0.00    -0.650 OA
BRANCH   3   5
HETATM    5  C   UNL     1      32.164   6.456 -17.896  1.00  0.00     0.110 C 
BRANCH   5   6
HETATM    6  C   UNL     1      31.212   6.124 -19.060  1.00  0.00     0.010 C 
BRANCH   6   7
HETATM    7  C   UNL     1      31.818   6.219 -20.475  1.00  0.00     0.001 C 
BRANCH   7   8
HETATM    8  C   UNL     1      30.975   7.015 -21.491  1.00  0.00     0.000 C 
BRANCH   8   9
HETATM    9  C   UNL     1      30.272   8.263 -20.921  1.00  0.00     0.000 C 
BRANCH   9  10
HETATM   10  C   UNL     1      31.184   9.488 -20.711  1.00  0.00     0.000 C 
BRANCH  10  11
HETATM   11  C   UNL     1      30.562  10.631 -19.884  1.00  0.00     0.000 C 
BRANCH  11  12
HETATM   12  C   UNL     1      29.030  10.562 -19.723  1.00  0.00     0.000 C 
BRANCH  12  13
HETATM   13  C   UNL     1      28.232  11.466 -20.684  1.00  0.00     0.000 C 
BRANCH  13  14
HETATM   14  C   UNL     1      26.738  11.111 -20.824  1.00  0.00     0.000 C 
BRANCH  14  15
HETATM   15  C   UNL     1      25.769  12.301 -20.678  1.00  0.00     0.000 C 
BRANCH  15  16
HETATM   16  C   UNL     1      24.343  11.930 -20.222  1.00  0.00     0.000 C 
BRANCH  16  17
HETATM   17  C   UNL     1      24.248  11.332 -18.803  1.00  0.00     0.000 C 
BRANCH  17  18
HETATM   18  C   UNL     1      24.143  12.367 -17.665  1.00  0.00     0.000 C 
BRANCH  18  19
HETATM   19  C   UNL     1      25.281  12.312 -16.627  1.00  0.00     0.000 C 
BRANCH  19  20
HETATM   20  C   UNL     1      24.971  11.491 -15.360  1.00  0.00     0.000 C 
BRANCH  20  21
HETATM   21  C   UNL     1      23.876  12.084 -14.450  1.00  0.00    -0.000 C 
BRANCH  21  22
HETATM   22  C   UNL     1      24.280  12.276 -12.977  1.00  0.00    -0.005 C 
HETATM   23  C   UNL     1      25.782  12.475 -12.785  1.00  0.00     0.005 C 
ENDBRANCH  21  22
ENDBRANCH  20  21
ENDBRANCH  19  20
ENDBRANCH  18  19
ENDBRANCH  17  18
ENDBRANCH  16  17
ENDBRANCH  15  16
ENDBRANCH  14  15
ENDBRANCH  13  14
ENDBRANCH  12  13
ENDBRANCH  11  12
ENDBRANCH  10  11
ENDBRANCH   9  10
ENDBRANCH   8   9
ENDBRANCH   7   8
ENDBRANCH   6   7
ENDBRANCH   5   6
ENDBRANCH   3   5
ENDBRANCH   1   3
TORSDOF 19
ENDMDL
MODEL 10
REMARK VINA RESULT:      -3.8      1.962      3.908
REMARK  19 active torsions:
REMARK  status: ('A' for Active; 'I' for Inactive)
REMARK    1  A    between atoms: O_1  and  C_22 
REMARK    2  A    between atoms: C_3  and  C_4 
REMARK    3  A    between atoms: C_3  and  C_5 
REMARK    4  A    between atoms: C_4  and  C_6 
REMARK    5  A    between atoms: C_5  and  C_7 
REMARK    6  A    between atoms: C_6  and  C_8 
REMARK    7  A    between atoms: C_7  and  C_9 
REMARK    8  A    between atoms: C_8  and  C_10 
REMARK    9  A    between atoms: C_9  and  C_11 
REMARK   10  A    between atoms: C_10  and  C_12 
REMARK   11  A    between atoms: C_11  and  C_13 
REMARK   12  A    between atoms: C_12  and  C_14 
REMARK   13  A    between atoms: C_13  and  C_15 
REMARK   14  A    between atoms: C_14  and  C_16 
REMARK   15  A    between atoms: C_15  and  C_17 
REMARK   16  A    between atoms: C_16  and  C_18 
REMARK   17  A    between atoms: C_17  and  C_19 
REMARK   18  A    between atoms: C_18  and  C_20 
REMARK   19  A    between atoms: C_20  and  C_22 
ROOT
HETATM    1  O   UNL     1      35.693   8.488 -13.533  1.00  0.00    -0.776 OA
HETATM    2  H   UNL     1      35.174   9.291 -13.384  1.00  0.00     0.167 HD
ENDROOT
BRANCH   1   3
HETATM    3  C   UNL     1      35.104   7.316 -13.850  1.00  0.00     0.139 C 
HETATM    4  O   UNL     1      34.404   6.747 -13.025  1.00  0.00    -0.650 OA
BRANCH   3   5
HETATM    5  C   UNL     1      35.335   6.684 -15.197  1.00  0.00     0.110 C 
BRANCH   5   6
HETATM    6  C   UNL     1      34.132   6.807 -16.150  1.00  0.00     0.010 C 
BRANCH   6   7
HETATM    7  C   UNL     1      33.163   5.607 -16.170  1.00  0.00     0.001 C 
BRANCH   7   8
HETATM    8  C   UNL     1      31.736   5.915 -15.672  1.00  0.00     0.000 C 
BRANCH   8   9
HETATM    9  C   UNL     1      30.898   6.810 -16.607  1.00  0.00     0.000 C 
BRANCH   9  10
HETATM   10  C   UNL     1      30.442   8.148 -15.994  1.00  0.00     0.000 C 
BRANCH  10  11
HETATM   11  C   UNL     1      30.680   9.387 -16.880  1.00  0.00     0.000 C 
BRANCH  11  12
HETATM   12  C   UNL     1      32.158   9.793 -17.051  1.00  0.00     0.000 C 
BRANCH  12  13
HETATM   13  C   UNL     1      32.782   9.426 -18.412  1.00  0.00     0.000 C 
BRANCH  13  14
HETATM   14  C   UNL     1      31.950   9.835 -19.643  1.00  0.00     0.000 C 
BRANCH  14  15
HETATM   15  C   UNL     1      31.732   8.718 -20.684  1.00  0.00     0.000 C 
BRANCH  15  16
HETATM   16  C   UNL     1      30.947   7.493 -20.173  1.00  0.00     0.000 C 
BRANCH  16  17
HETATM   17  C   UNL     1      31.676   6.142 -20.325  1.00  0.00     0.000 C 
BRANCH  17  18
HETATM   18  C   UNL     1      33.113   6.109 -19.768  1.00  0.00     0.000 C 
BRANCH  18  19
HETATM   19  C   UNL     1      34.227   6.116 -20.833  1.00  0.00     0.000 C 
BRANCH  19  20
HETATM   20  C   UNL     1      35.215   7.296 -20.738  1.00  0.00     0.000 C 
BRANCH  20  21
HETATM   21  C   UNL     1      35.797   7.548 -19.332  1.00  0.00    -0.000 C 
BRANCH  21  22
HETATM   22  C   UNL     1      36.401   8.946 -19.114  1.00  0.00    -0.005 C 
HETATM   23  C   UNL     1      36.410   9.377 -17.648  1.00  0.00     0.005 C 
ENDBRANCH  21  22
ENDBRANCH  20  21
ENDBRANCH  19  20
ENDBRANCH  18  19
ENDBRANCH  17  18
ENDBRANCH  16  17
ENDBRANCH  15  16
ENDBRANCH  14  15
ENDBRANCH  13  14
ENDBRANCH  12  13
ENDBRANCH  11  12
ENDBRANCH  10  11
ENDBRANCH   9  10
ENDBRANCH   8   9
ENDBRANCH   7   8
ENDBRANCH   6   7
ENDBRANCH   5   6
ENDBRANCH   3   5
ENDBRANCH   1   3
TORSDOF 19
ENDMDL
MODEL 11
REMARK VINA RESULT:      -3.8      6.673     10.916
REMARK  19 active torsions:
REMARK  status: ('A' for Active; 'I' for Inactive)
REMARK    1  A    between atoms: O_1  and  C_22 
REMARK    2  A    between atoms: C_3  and  C_4 
REMARK    3  A    between atoms: C_3  and  C_5 
REMARK    4  A    between atoms: C_4  and  C_6 
REMARK    5  A    between atoms: C_5  and  C_7 
REMARK    6  A    between atoms: C_6  and  C_8 
REMARK    7  A    between atoms: C_7  and  C_9 
REMARK    8  A    between atoms: C_8  and  C_10 
REMARK    9  A    between atoms: C_9  and  C_11 
REMARK   10  A    between atoms: C_10  and  C_12 
REMARK   11  A    between atoms: C_11  and  C_13 
REMARK   12  A    between atoms: C_12  and  C_14 
REMARK   13  A    between atoms: C_13  and  C_15 
REMARK   14  A    between atoms: C_14  and  C_16 
REMARK   15  A    between atoms: C_15  and  C_17 
REMARK   16  A    between atoms: C_16  and  C_18 
REMARK   17  A    between atoms: C_17  and  C_19 
REMARK   18  A    between atoms: C_18  and  C_20 
REMARK   19  A    between atoms: C_20  and  C_22 
ROOT
HETATM    1  O   UNL     1      28.101  10.188 -20.834  1.00  0.00    -0.776 OA
HETATM    2  H   UNL     1      28.785   9.504 -20.826  1.00  0.00     0.167 HD
ENDROOT
BRANCH   1   3
HETATM    3  C   UNL     1      28.010  11.107 -19.850  1.00  0.00     0.139 C 
HETATM    4  O   UNL     1      28.470  10.859 -18.745  1.00  0.00    -0.650 OA
BRANCH   3   5
HETATM    5  C   UNL     1      27.311  12.419 -20.091  1.00  0.00     0.110 C 
BRANCH   5   6
HETATM    6  C   UNL     1      26.240  12.353 -21.195  1.00  0.00     0.010 C 
BRANCH   6   7
HETATM    7  C   UNL     1      24.978  11.531 -20.861  1.00  0.00     0.001 C 
BRANCH   7   8
HETATM    8  C   UNL     1      23.883  12.303 -20.097  1.00  0.00     0.000 C 
BRANCH   8   9
HETATM    9  C   UNL     1      24.037  12.307 -18.562  1.00  0.00     0.000 C 
BRANCH   9  10
HETATM   10  C   UNL     1      24.652  11.026 -17.965  1.00  0.00     0.000 C 
BRANCH  10  11
HETATM   11  C   UNL     1      25.169  11.163 -16.519  1.00  0.00     0.000 C 
BRANCH  11  12
HETATM   12  C   UNL     1      24.499  12.275 -15.688  1.00  0.00     0.000 C 
BRANCH  12  13
HETATM   13  C   UNL     1      23.949  11.826 -14.320  1.00  0.00     0.000 C 
BRANCH  13  14
HETATM   14  C   UNL     1      24.932  11.009 -13.458  1.00  0.00     0.000 C 
BRANCH  14  15
HETATM   15  C   UNL     1      26.246  11.733 -13.104  1.00  0.00     0.000 C 
BRANCH  15  16
HETATM   16  C   UNL     1      26.200  12.578 -11.815  1.00  0.00     0.000 C 
BRANCH  16  17
HETATM   17  C   UNL     1      26.521  11.807 -10.518  1.00  0.00     0.000 C 
BRANCH  17  18
HETATM   18  C   UNL     1      27.647  10.762 -10.642  1.00  0.00     0.000 C 
BRANCH  18  19
HETATM   19  C   UNL     1      28.811  10.935  -9.646  1.00  0.00     0.000 C 
BRANCH  19  20
HETATM   20  C   UNL     1      30.204  10.574 -10.199  1.00  0.00     0.000 C 
BRANCH  20  21
HETATM   21  C   UNL     1      30.788   9.244  -9.678  1.00  0.00    -0.000 C 
BRANCH  21  22
HETATM   22  C   UNL     1      30.726   8.068 -10.668  1.00  0.00    -0.005 C 
HETATM   23  C   UNL     1      30.846   8.502 -12.128  1.00  0.00     0.005 C 
ENDBRANCH  21  22
ENDBRANCH  20  21
ENDBRANCH  19  20
ENDBRANCH  18  19
ENDBRANCH  17  18
ENDBRANCH  16  17
ENDBRANCH  15  16
ENDBRANCH  14  15
ENDBRANCH  13  14
ENDBRANCH  12  13
ENDBRANCH  11  12
ENDBRANCH  10  11
ENDBRANCH   9  10
ENDBRANCH   8   9
ENDBRANCH   7   8
ENDBRANCH   6   7
ENDBRANCH   5   6
ENDBRANCH   3   5
ENDBRANCH   1   3
TORSDOF 19
ENDMDL
MODEL 12
REMARK VINA RESULT:      -3.8      8.605     12.070
REMARK  19 active torsions:
REMARK  status: ('A' for Active; 'I' for Inactive)
REMARK    1  A    between atoms: O_1  and  C_22 
REMARK    2  A    between atoms: C_3  and  C_4 
REMARK    3  A    between atoms: C_3  and  C_5 
REMARK    4  A    between atoms: C_4  and  C_6 
REMARK    5  A    between atoms: C_5  and  C_7 
REMARK    6  A    between atoms: C_6  and  C_8 
REMARK    7  A    between atoms: C_7  and  C_9 
REMARK    8  A    between atoms: C_8  and  C_10 
REMARK    9  A    between atoms: C_9  and  C_11 
REMARK   10  A    between atoms: C_10  and  C_12 
REMARK   11  A    between atoms: C_11  and  C_13 
REMARK   12  A    between atoms: C_12  and  C_14 
REMARK   13  A    between atoms: C_13  and  C_15 
REMARK   14  A    between atoms: C_14  and  C_16 
REMARK   15  A    between atoms: C_15  and  C_17 
REMARK   16  A    between atoms: C_16  and  C_18 
REMARK   17  A    between atoms: C_17  and  C_19 
REMARK   18  A    between atoms: C_18  and  C_20 
REMARK   19  A    between atoms: C_20  and  C_22 
ROOT
HETATM    1  O   UNL     1      28.345  14.462 -19.440  1.00  0.00    -0.776 OA
HETATM    2  H   UNL     1      28.421  14.738 -20.364  1.00  0.00     0.167 HD
ENDROOT
BRANCH   1   3
HETATM    3  C   UNL     1      27.659  13.354 -19.088  1.00  0.00     0.139 C 
HETATM    4  O   UNL     1      27.511  12.450 -19.898  1.00  0.00    -0.650 OA
BRANCH   3   5
HETATM    5  C   UNL     1      27.042  13.240 -17.720  1.00  0.00     0.110 C 
BRANCH   5   6
HETATM    6  C   UNL     1      25.588  12.733 -17.739  1.00  0.00     0.010 C 
BRANCH   6   7
HETATM    7  C   UNL     1      25.383  11.261 -17.325  1.00  0.00     0.001 C 
BRANCH   7   8
HETATM    8  C   UNL     1      25.188  11.032 -15.813  1.00  0.00     0.000 C 
BRANCH   8   9
HETATM    9  C   UNL     1      24.152  11.956 -15.141  1.00  0.00     0.000 C 
BRANCH   9  10
HETATM   10  C   UNL     1      24.429  12.277 -13.659  1.00  0.00     0.000 C 
BRANCH  10  11
HETATM   11  C   UNL     1      25.526  11.418 -12.999  1.00  0.00     0.000 C 
BRANCH  11  12
HETATM   12  C   UNL     1      26.816  12.178 -12.629  1.00  0.00     0.000 C 
BRANCH  12  13
HETATM   13  C   UNL     1      27.244  13.265 -13.635  1.00  0.00     0.000 C 
BRANCH  13  14
HETATM   14  C   UNL     1      28.306  14.254 -13.114  1.00  0.00     0.000 C 
BRANCH  14  15
HETATM   15  C   UNL     1      28.035  14.821 -11.706  1.00  0.00     0.000 C 
BRANCH  15  16
HETATM   16  C   UNL     1      29.175  14.615 -10.688  1.00  0.00     0.000 C 
BRANCH  16  17
HETATM   17  C   UNL     1      28.777  13.850  -9.409  1.00  0.00     0.000 C 
BRANCH  17  18
HETATM   18  C   UNL     1      28.969  12.322  -9.476  1.00  0.00     0.000 C 
BRANCH  18  19
HETATM   19  C   UNL     1      27.679  11.494  -9.316  1.00  0.00     0.000 C 
BRANCH  19  20
HETATM   20  C   UNL     1      26.483  12.258  -8.713  1.00  0.00     0.000 C 
BRANCH  20  21
HETATM   21  C   UNL     1      25.420  11.372  -8.032  1.00  0.00    -0.000 C 
BRANCH  21  22
HETATM   22  C   UNL     1      24.049  11.339  -8.731  1.00  0.00    -0.005 C 
HETATM   23  C   UNL     1      23.957  12.290  -9.923  1.00  0.00     0.005 C 
ENDBRANCH  21  22
ENDBRANCH  20  21
ENDBRANCH  19  20
ENDBRANCH  18  19
ENDBRANCH  17  18
ENDBRANCH  16  17
ENDBRANCH  15  16
ENDBRANCH  14  15
ENDBRANCH  13  14
ENDBRANCH  12  13
ENDBRANCH  11  12
ENDBRANCH  10  11
ENDBRANCH   9  10
ENDBRANCH   8   9
ENDBRANCH   7   8
ENDBRANCH   6   7
ENDBRANCH   5   6
ENDBRANCH   3   5
ENDBRANCH   1   3
TORSDOF 19
ENDMDL
MODEL 13
REMARK VINA RESULT:      -3.8      7.471      9.843
REMARK  19 active torsions:
REMARK  status: ('A' for Active; 'I' for Inactive)
REMARK    1  A    between atoms: O_1  and  C_22 
REMARK    2  A    between atoms: C_3  and  C_4 
REMARK    3  A    between atoms: C_3  and  C_5 
REMARK    4  A    between atoms: C_4  and  C_6 
REMARK    5  A    between atoms: C_5  and  C_7 
REMARK    6  A    between atoms: C_6  and  C_8 
REMARK    7  A    between atoms: C_7  and  C_9 
REMARK    8  A    between atoms: C_8  and  C_10 
REMARK    9  A    between atoms: C_9  and  C_11 
REMARK   10  A    between atoms: C_10  and  C_12 
REMARK   11  A    between atoms: C_11  and  C_13 
REMARK   12  A    between atoms: C_12  and  C_14 
REMARK   13  A    between atoms: C_13  and  C_15 
REMARK   14  A    between atoms: C_14  and  C_16 
REMARK   15  A    between atoms: C_15  and  C_17 
REMARK   16  A    between atoms: C_16  and  C_18 
REMARK   17  A    between atoms: C_17  and  C_19 
REMARK   18  A    between atoms: C_18  and  C_20 
REMARK   19  A    between atoms: C_20  and  C_22 
ROOT
HETATM    1  O   UNL     1      27.991  10.222 -20.869  1.00  0.00    -0.776 OA
HETATM    2  H   UNL     1      28.683   9.548 -20.930  1.00  0.00     0.167 HD
ENDROOT
BRANCH   1   3
HETATM    3  C   UNL     1      27.976  11.128 -19.869  1.00  0.00     0.139 C 
HETATM    4  O   UNL     1      28.599  10.907 -18.841  1.00  0.00    -0.650 OA
BRANCH   3   5
HETATM    5  C   UNL     1      27.164  12.390 -19.994  1.00  0.00     0.110 C 
BRANCH   5   6
HETATM    6  C   UNL     1      25.864  12.210 -20.799  1.00  0.00     0.010 C 
BRANCH   6   7
HETATM    7  C   UNL     1      24.742  11.417 -20.099  1.00  0.00     0.001 C 
BRANCH   7   8
HETATM    8  C   UNL     1      23.915  12.223 -19.077  1.00  0.00     0.000 C 
BRANCH   8   9
HETATM    9  C   UNL     1      24.479  12.231 -17.642  1.00  0.00     0.000 C 
BRANCH   9  10
HETATM   10  C   UNL     1      25.145  10.915 -17.195  1.00  0.00     0.000 C 
BRANCH  10  11
HETATM   11  C   UNL     1      26.260  11.073 -16.142  1.00  0.00     0.000 C 
BRANCH  11  12
HETATM   12  C   UNL     1      26.093  12.273 -15.188  1.00  0.00     0.000 C 
BRANCH  12  13
HETATM   13  C   UNL     1      27.390  13.046 -14.878  1.00  0.00     0.000 C 
BRANCH  13  14
HETATM   14  C   UNL     1      28.294  13.318 -16.097  1.00  0.00     0.000 C 
BRANCH  14  15
HETATM   15  C   UNL     1      27.727  14.324 -17.118  1.00  0.00     0.000 C 
BRANCH  15  16
HETATM   16  C   UNL     1      28.315  15.747 -17.029  1.00  0.00     0.000 C 
BRANCH  16  17
HETATM   17  C   UNL     1      29.464  16.041 -18.016  1.00  0.00     0.000 C 
BRANCH  17  18
HETATM   18  C   UNL     1      29.347  15.334 -19.382  1.00  0.00     0.000 C 
BRANCH  18  19
HETATM   19  C   UNL     1      29.293  16.276 -20.601  1.00  0.00     0.000 C 
BRANCH  19  20
HETATM   20  C   UNL     1      28.265  15.886 -21.682  1.00  0.00     0.000 C 
BRANCH  20  21
HETATM   21  C   UNL     1      28.858  15.194 -22.927  1.00  0.00    -0.000 C 
BRANCH  21  22
HETATM   22  C   UNL     1      28.676  13.667 -22.977  1.00  0.00    -0.005 C 
HETATM   23  C   UNL     1      27.636  13.216 -24.001  1.00  0.00     0.005 C 
ENDBRANCH  21  22
ENDBRANCH  20  21
ENDBRANCH  19  20
ENDBRANCH  18  19
ENDBRANCH  17  18
ENDBRANCH  16  17
ENDBRANCH  15  16
ENDBRANCH  14  15
ENDBRANCH  13  14
ENDBRANCH  12  13
ENDBRANCH  11  12
ENDBRANCH  10  11
ENDBRANCH   9  10
ENDBRANCH   8   9
ENDBRANCH   7   8
ENDBRANCH   6   7
ENDBRANCH   5   6
ENDBRANCH   3   5
ENDBRANCH   1   3
TORSDOF 19
ENDMDL
MODEL 14
REMARK VINA RESULT:      -3.7      3.694      7.185
REMARK  19 active torsions:
REMARK  status: ('A' for Active; 'I' for Inactive)
REMARK    1  A    between atoms: O_1  and  C_22 
REMARK    2  A    between atoms: C_3  and  C_4 
REMARK    3  A    between atoms: C_3  and  C_5 
REMARK    4  A    between atoms: C_4  and  C_6 
REMARK    5  A    between atoms: C_5  and  C_7 
REMARK    6  A    between atoms: C_6  and  C_8 
REMARK    7  A    between atoms: C_7  and  C_9 
REMARK    8  A    between atoms: C_8  and  C_10 
REMARK    9  A    between atoms: C_9  and  C_11 
REMARK   10  A    between atoms: C_10  and  C_12 
REMARK   11  A    between atoms: C_11  and  C_13 
REMARK   12  A    between atoms: C_12  and  C_14 
REMARK   13  A    between atoms: C_13  and  C_15 
REMARK   14  A    between atoms: C_14  and  C_16 
REMARK   15  A    between atoms: C_15  and  C_17 
REMARK   16  A    between atoms: C_16  and  C_18 
REMARK   17  A    between atoms: C_17  and  C_19 
REMARK   18  A    between atoms: C_18  and  C_20 
REMARK   19  A    between atoms: C_20  and  C_22 
ROOT
HETATM    1  O   UNL     1      37.250  10.268 -16.757  1.00  0.00    -0.776 OA
HETATM    2  H   UNL     1      38.084  10.043 -16.321  1.00  0.00     0.167 HD
ENDROOT
BRANCH   1   3
HETATM    3  C   UNL     1      36.220   9.396 -16.803  1.00  0.00     0.139 C 
HETATM    4  O   UNL     1      35.970   8.808 -17.845  1.00  0.00    -0.650 OA
BRANCH   3   5
HETATM    5  C   UNL     1      35.353   9.174 -15.593  1.00  0.00     0.110 C 
BRANCH   5   6
HETATM    6  C   UNL     1      35.943   8.167 -14.588  1.00  0.00     0.010 C 
BRANCH   6   7
HETATM    7  C   UNL     1      35.503   6.700 -14.767  1.00  0.00     0.001 C 
BRANCH   7   8
HETATM    8  C   UNL     1      34.034   6.509 -15.195  1.00  0.00     0.000 C 
BRANCH   8   9
HETATM    9  C   UNL     1      33.837   5.925 -16.609  1.00  0.00     0.000 C 
BRANCH   9  10
HETATM   10  C   UNL     1      32.375   5.628 -16.994  1.00  0.00     0.000 C 
BRANCH  10  11
HETATM   11  C   UNL     1      31.316   6.213 -16.037  1.00  0.00     0.000 C 
BRANCH  11  12
HETATM   12  C   UNL     1      30.730   7.574 -16.464  1.00  0.00     0.000 C 
BRANCH  12  13
HETATM   13  C   UNL     1      30.434   8.549 -15.307  1.00  0.00     0.000 C 
BRANCH  13  14
HETATM   14  C   UNL     1      31.672   9.016 -14.515  1.00  0.00     0.000 C 
BRANCH  14  15
HETATM   15  C   UNL     1      31.809   8.410 -13.103  1.00  0.00     0.000 C 
BRANCH  15  16
HETATM   16  C   UNL     1      30.581   7.619 -12.610  1.00  0.00     0.000 C 
BRANCH  16  17
HETATM   17  C   UNL     1      30.893   6.222 -12.036  1.00  0.00     0.000 C 
BRANCH  17  18
HETATM   18  C   UNL     1      32.303   5.685 -12.356  1.00  0.00     0.000 C 
BRANCH  18  19
HETATM   19  C   UNL     1      33.275   5.651 -11.161  1.00  0.00     0.000 C 
BRANCH  19  20
HETATM   20  C   UNL     1      34.231   6.857 -11.062  1.00  0.00     0.000 C 
BRANCH  20  21
HETATM   21  C   UNL     1      35.290   6.761  -9.944  1.00  0.00    -0.000 C 
BRANCH  21  22
HETATM   22  C   UNL     1      36.308   7.914  -9.906  1.00  0.00    -0.005 C 
HETATM   23  C   UNL     1      35.993   9.030 -10.901  1.00  0.00     0.005 C 
ENDBRANCH  21  22
ENDBRANCH  20  21
ENDBRANCH  19  20
ENDBRANCH  18  19
ENDBRANCH  17  18
ENDBRANCH  16  17
ENDBRANCH  15  16
ENDBRANCH  14  15
ENDBRANCH  13  14
ENDBRANCH  12  13
ENDBRANCH  11  12
ENDBRANCH  10  11
ENDBRANCH   9  10
ENDBRANCH   8   9
ENDBRANCH   7   8
ENDBRANCH   6   7
ENDBRANCH   5   6
ENDBRANCH   3   5
ENDBRANCH   1   3
TORSDOF 19
ENDMDL
MODEL 15
REMARK VINA RESULT:      -3.7     28.733     30.239
REMARK  19 active torsions:
REMARK  status: ('A' for Active; 'I' for Inactive)
REMARK    1  A    between atoms: O_1  and  C_22 
REMARK    2  A    between atoms: C_3  and  C_4 
REMARK    3  A    between atoms: C_3  and  C_5 
REMARK    4  A    between atoms: C_4  and  C_6 
REMARK    5  A    between atoms: C_5  and  C_7 
REMARK    6  A    between atoms: C_6  and  C_8 
REMARK    7  A    between atoms: C_7  and  C_9 
REMARK    8  A    between atoms: C_8  and  C_10 
REMARK    9  A    between atoms: C_9  and  C_11 
REMARK   10  A    between atoms: C_10  and  C_12 
REMARK   11  A    between atoms: C_11  and  C_13 
REMARK   12  A    between atoms: C_12  and  C_14 
REMARK   13  A    between atoms: C_13  and  C_15 
REMARK   14  A    between atoms: C_14  and  C_16 
REMARK   15  A    between atoms: C_15  and  C_17 
REMARK   16  A    between atoms: C_16  and  C_18 
REMARK   17  A    between atoms: C_17  and  C_19 
REMARK   18  A    between atoms: C_18  and  C_20 
REMARK   19  A    between atoms: C_20  and  C_22 
ROOT
HETATM    1  O   UNL     1      49.115 -16.901  -7.977  1.00  0.00    -0.776 OA
HETATM    2  H   UNL     1      49.893 -16.464  -7.605  1.00  0.00     0.167 HD
ENDROOT
BRANCH   1   3
HETATM    3  C   UNL     1      48.858 -18.205  -7.743  1.00  0.00     0.139 C 
HETATM    4  O   UNL     1      48.426 -18.552  -6.653  1.00  0.00    -0.650 OA
BRANCH   3   5
HETATM    5  C   UNL     1      49.139 -19.241  -8.799  1.00  0.00     0.110 C 
BRANCH   5   6
HETATM    6  C   UNL     1      49.038 -18.698 -10.237  1.00  0.00     0.010 C 
BRANCH   6   7
HETATM    7  C   UNL     1      47.732 -19.025 -10.990  1.00  0.00     0.001 C 
BRANCH   7   8
HETATM    8  C   UNL     1      47.897 -19.267 -12.504  1.00  0.00     0.000 C 
BRANCH   8   9
HETATM    9  C   UNL     1      48.470 -18.075 -13.296  1.00  0.00     0.000 C 
BRANCH   9  10
HETATM   10  C   UNL     1      47.523 -17.479 -14.356  1.00  0.00     0.000 C 
BRANCH  10  11
HETATM   11  C   UNL     1      46.058 -17.950 -14.260  1.00  0.00     0.000 C 
BRANCH  11  12
HETATM   12  C   UNL     1      45.422 -18.382 -15.596  1.00  0.00     0.000 C 
BRANCH  12  13
HETATM   13  C   UNL     1      44.595 -19.682 -15.535  1.00  0.00     0.000 C 
BRANCH  13  14
HETATM   14  C   UNL     1      44.978 -20.646 -14.395  1.00  0.00     0.000 C 
BRANCH  14  15
HETATM   15  C   UNL     1      46.109 -21.639 -14.732  1.00  0.00     0.000 C 
BRANCH  15  16
HETATM   16  C   UNL     1      46.160 -22.095 -16.205  1.00  0.00     0.000 C 
BRANCH  16  17
HETATM   17  C   UNL     1      47.550 -22.005 -16.867  1.00  0.00     0.000 C 
BRANCH  17  18
HETATM   18  C   UNL     1      47.798 -20.727 -17.693  1.00  0.00     0.000 C 
BRANCH  18  19
HETATM   19  C   UNL     1      48.632 -19.643 -16.982  1.00  0.00     0.000 C 
BRANCH  19  20
HETATM   20  C   UNL     1      49.074 -18.468 -17.877  1.00  0.00     0.000 C 
BRANCH  20  21
HETATM   21  C   UNL     1      48.012 -17.368 -18.082  1.00  0.00    -0.000 C 
BRANCH  21  22
HETATM   22  C   UNL     1      47.239 -17.444 -19.411  1.00  0.00    -0.005 C 
HETATM   23  C   UNL     1      45.811 -17.961 -19.248  1.00  0.00     0.005 C 
ENDBRANCH  21  22
ENDBRANCH  20  21
ENDBRANCH  19  20
ENDBRANCH  18  19
ENDBRANCH  17  18
ENDBRANCH  16  17
ENDBRANCH  15  16
ENDBRANCH  14  15
ENDBRANCH  13  14
ENDBRANCH  12  13
ENDBRANCH  11  12
ENDBRANCH  10  11
ENDBRANCH   9  10
ENDBRANCH   8   9
ENDBRANCH   7   8
ENDBRANCH   6   7
ENDBRANCH   5   6
ENDBRANCH   3   5
ENDBRANCH   1   3
TORSDOF 19
ENDMDL
MODEL 16
REMARK VINA RESULT:      -3.7      7.657     11.140
REMARK  19 active torsions:
REMARK  status: ('A' for Active; 'I' for Inactive)
REMARK    1  A    between atoms: O_1  and  C_22 
REMARK    2  A    between atoms: C_3  and  C_4 
REMARK    3  A    between atoms: C_3  and  C_5 
REMARK    4  A    between atoms: C_4  and  C_6 
REMARK    5  A    between atoms: C_5  and  C_7 
REMARK    6  A    between atoms: C_6  and  C_8 
REMARK    7  A    between atoms: C_7  and  C_9 
REMARK    8  A    between atoms: C_8  and  C_10 
REMARK    9  A    between atoms: C_9  and  C_11 
REMARK   10  A    between atoms: C_10  and  C_12 
REMARK   11  A    between atoms: C_11  and  C_13 
REMARK   12  A    between atoms: C_12  and  C_14 
REMARK   13  A    between atoms: C_13  and  C_15 
REMARK   14  A    between atoms: C_14  and  C_16 
REMARK   15  A    between atoms: C_15  and  C_17 
REMARK   16  A    between atoms: C_16  and  C_18 
REMARK   17  A    between atoms: C_17  and  C_19 
REMARK   18  A    between atoms: C_18  and  C_20 
REMARK   19  A    between atoms: C_20  and  C_22 
ROOT
HETATM    1  O   UNL     1      24.008  12.752 -16.388  1.00  0.00    -0.776 OA
HETATM    2  H   UNL     1      23.478  13.237 -15.740  1.00  0.00     0.167 HD
ENDROOT
BRANCH   1   3
HETATM    3  C   UNL     1      24.720  11.659 -16.042  1.00  0.00     0.139 C 
HETATM    4  O   UNL     1      24.666  11.239 -14.895  1.00  0.00    -0.650 OA
BRANCH   3   5
HETATM    5  C   UNL     1      25.610  10.977 -17.047  1.00  0.00     0.110 C 
BRANCH   5   6
HETATM    6  C   UNL     1      26.894  11.764 -17.367  1.00  0.00     0.010 C 
BRANCH   6   7
HETATM    7  C   UNL     1      27.873  11.962 -16.191  1.00  0.00     0.001 C 
BRANCH   7   8
HETATM    8  C   UNL     1      28.292  10.667 -15.467  1.00  0.00     0.000 C 
BRANCH   8   9
HETATM    9  C   UNL     1      29.468  10.821 -14.482  1.00  0.00     0.000 C 
BRANCH   9  10
HETATM   10  C   UNL     1      30.308  12.099 -14.663  1.00  0.00     0.000 C 
BRANCH  10  11
HETATM   11  C   UNL     1      30.368  13.022 -13.429  1.00  0.00     0.000 C 
BRANCH  11  12
HETATM   12  C   UNL     1      29.191  12.873 -12.445  1.00  0.00     0.000 C 
BRANCH  12  13
HETATM   13  C   UNL     1      27.941  13.706 -12.792  1.00  0.00     0.000 C 
BRANCH  13  14
HETATM   14  C   UNL     1      26.604  13.111 -12.304  1.00  0.00     0.000 C 
BRANCH  14  15
HETATM   15  C   UNL     1      26.541  11.570 -12.296  1.00  0.00     0.000 C 
BRANCH  15  16
HETATM   16  C   UNL     1      25.500  10.965 -11.331  1.00  0.00     0.000 C 
BRANCH  16  17
HETATM   17  C   UNL     1      24.560  11.988 -10.661  1.00  0.00     0.000 C 
BRANCH  17  18
HETATM   18  C   UNL     1      23.965  11.541  -9.311  1.00  0.00     0.000 C 
BRANCH  18  19
HETATM   19  C   UNL     1      24.437  12.355  -8.089  1.00  0.00     0.000 C 
BRANCH  19  20
HETATM   20  C   UNL     1      25.920  12.774  -8.116  1.00  0.00     0.000 C 
BRANCH  20  21
HETATM   21  C   UNL     1      26.928  11.614  -7.987  1.00  0.00    -0.000 C 
BRANCH  21  22
HETATM   22  C   UNL     1      28.200  11.754  -8.842  1.00  0.00    -0.005 C 
HETATM   23  C   UNL     1      28.799  13.159  -8.808  1.00  0.00     0.005 C 
ENDBRANCH  21  22
ENDBRANCH  20  21
ENDBRANCH  19  20
ENDBRANCH  18  19
ENDBRANCH  17  18
ENDBRANCH  16  17
ENDBRANCH  15  16
ENDBRANCH  14  15
ENDBRANCH  13  14
ENDBRANCH  12  13
ENDBRANCH  11  12
ENDBRANCH  10  11
ENDBRANCH   9  10
ENDBRANCH   8   9
ENDBRANCH   7   8
ENDBRANCH   6   7
ENDBRANCH   5   6
ENDBRANCH   3   5
ENDBRANCH   1   3
TORSDOF 19
ENDMDL
MODEL 17
REMARK VINA RESULT:      -3.7      6.606     10.931
REMARK  19 active torsions:
REMARK  status: ('A' for Active; 'I' for Inactive)
REMARK    1  A    between atoms: O_1  and  C_22 
REMARK    2  A    between atoms: C_3  and  C_4 
REMARK    3  A    between atoms: C_3  and  C_5 
REMARK    4  A    between atoms: C_4  and  C_6 
REMARK    5  A    between atoms: C_5  and  C_7 
REMARK    6  A    between atoms: C_6  and  C_8 
REMARK    7  A    between atoms: C_7  and  C_9 
REMARK    8  A    between atoms: C_8  and  C_10 
REMARK    9  A    between atoms: C_9  and  C_11 
REMARK   10  A    between atoms: C_10  and  C_12 
REMARK   11  A    between atoms: C_11  and  C_13 
REMARK   12  A    between atoms: C_12  and  C_14 
REMARK   13  A    between atoms: C_13  and  C_15 
REMARK   14  A    between atoms: C_14  and  C_16 
REMARK   15  A    between atoms: C_15  and  C_17 
REMARK   16  A    between atoms: C_16  and  C_18 
REMARK   17  A    between atoms: C_17  and  C_19 
REMARK   18  A    between atoms: C_18  and  C_20 
REMARK   19  A    between atoms: C_20  and  C_22 
ROOT
HETATM    1  O   UNL     1      27.722  12.845 -18.477  1.00  0.00    -0.776 OA
HETATM    2  H   UNL     1      28.242  12.498 -17.739  1.00  0.00     0.167 HD
ENDROOT
BRANCH   1   3
HETATM    3  C   UNL     1      27.106  12.023 -19.354  1.00  0.00     0.139 C 
HETATM    4  O   UNL     1      27.544  10.897 -19.540  1.00  0.00    -0.650 OA
BRANCH   3   5
HETATM    5  C   UNL     1      25.910  12.498 -20.135  1.00  0.00     0.110 C 
BRANCH   5   6
HETATM    6  C   UNL     1      24.664  11.610 -19.955  1.00  0.00     0.010 C 
BRANCH   6   7
HETATM    7  C   UNL     1      24.361  11.158 -18.512  1.00  0.00     0.001 C 
BRANCH   7   8
HETATM    8  C   UNL     1      24.337  12.292 -17.467  1.00  0.00     0.000 C 
BRANCH   8   9
HETATM    9  C   UNL     1      24.929  11.924 -16.091  1.00  0.00     0.000 C 
BRANCH   9  10
HETATM   10  C   UNL     1      23.989  12.157 -14.893  1.00  0.00     0.000 C 
BRANCH  10  11
HETATM   11  C   UNL     1      24.432  11.489 -13.576  1.00  0.00     0.000 C 
BRANCH  11  12
HETATM   12  C   UNL     1      24.286  12.366 -12.316  1.00  0.00     0.000 C 
BRANCH  12  13
HETATM   13  C   UNL     1      25.230  12.001 -11.154  1.00  0.00     0.000 C 
BRANCH  13  14
HETATM   14  C   UNL     1      26.275  10.915 -11.478  1.00  0.00     0.000 C 
BRANCH  14  15
HETATM   15  C   UNL     1      27.744  11.352 -11.308  1.00  0.00     0.000 C 
BRANCH  15  16
HETATM   16  C   UNL     1      28.684  10.272 -10.734  1.00  0.00     0.000 C 
BRANCH  16  17
HETATM   17  C   UNL     1      29.986  10.809 -10.106  1.00  0.00     0.000 C 
BRANCH  17  18
HETATM   18  C   UNL     1      30.514  10.001  -8.904  1.00  0.00     0.000 C 
BRANCH  18  19
HETATM   19  C   UNL     1      30.652   8.485  -9.147  1.00  0.00     0.000 C 
BRANCH  19  20
HETATM   20  C   UNL     1      32.091   7.992  -9.394  1.00  0.00     0.000 C 
BRANCH  20  21
HETATM   21  C   UNL     1      32.325   7.325 -10.766  1.00  0.00    -0.000 C 
BRANCH  21  22
HETATM   22  C   UNL     1      31.348   6.190 -11.117  1.00  0.00    -0.005 C 
HETATM   23  C   UNL     1      30.367   6.561 -12.229  1.00  0.00     0.005 C 
ENDBRANCH  21  22
ENDBRANCH  20  21
ENDBRANCH  19  20
ENDBRANCH  18  19
ENDBRANCH  17  18
ENDBRANCH  16  17
ENDBRANCH  15  16
ENDBRANCH  14  15
ENDBRANCH  13  14
ENDBRANCH  12  13
ENDBRANCH  11  12
ENDBRANCH  10  11
ENDBRANCH   9  10
ENDBRANCH   8   9
ENDBRANCH   7   8
ENDBRANCH   6   7
ENDBRANCH   5   6
ENDBRANCH   3   5
ENDBRANCH   1   3
TORSDOF 19
ENDMDL
MODEL 18
REMARK VINA RESULT:      -3.7      7.107     11.163
REMARK  19 active torsions:
REMARK  status: ('A' for Active; 'I' for Inactive)
REMARK    1  A    between atoms: O_1  and  C_22 
REMARK    2  A    between atoms: C_3  and  C_4 
REMARK    3  A    between atoms: C_3  and  C_5 
REMARK    4  A    between atoms: C_4  and  C_6 
REMARK    5  A    between atoms: C_5  and  C_7 
REMARK    6  A    between atoms: C_6  and  C_8 
REMARK    7  A    between atoms: C_7  and  C_9 
REMARK    8  A    between atoms: C_8  and  C_10 
REMARK    9  A    between atoms: C_9  and  C_11 
REMARK   10  A    between atoms: C_10  and  C_12 
REMARK   11  A    between atoms: C_11  and  C_13 
REMARK   12  A    between atoms: C_12  and  C_14 
REMARK   13  A    between atoms: C_13  and  C_15 
REMARK   14  A    between atoms: C_14  and  C_16 
REMARK   15  A    between atoms: C_15  and  C_17 
REMARK   16  A    between atoms: C_16  and  C_18 
REMARK   17  A    between atoms: C_17  and  C_19 
REMARK   18  A    between atoms: C_18  and  C_20 
REMARK   19  A    between atoms: C_20  and  C_22 
ROOT
HETATM    1  O   UNL     1      29.881   8.686 -21.215  1.00  0.00    -0.776 OA
HETATM    2  H   UNL     1      30.277   7.957 -21.712  1.00  0.00     0.167 HD
ENDROOT
BRANCH   1   3
HETATM    3  C   UNL     1      30.496   9.883 -21.109  1.00  0.00     0.139 C 
HETATM    4  O   UNL     1      31.525   9.981 -20.455  1.00  0.00    -0.650 OA
BRANCH   3   5
HETATM    5  C   UNL     1      29.904  11.106 -21.757  1.00  0.00     0.110 C 
BRANCH   5   6
HETATM    6  C   UNL     1      29.375  12.143 -20.749  1.00  0.00     0.010 C 
BRANCH   6   7
HETATM    7  C   UNL     1      27.972  11.866 -20.171  1.00  0.00     0.001 C 
BRANCH   7   8
HETATM    8  C   UNL     1      26.888  11.546 -21.219  1.00  0.00     0.000 C 
BRANCH   8   9
HETATM    9  C   UNL     1      25.495  12.136 -20.919  1.00  0.00     0.000 C 
BRANCH   9  10
HETATM   10  C   UNL     1      24.592  11.259 -20.030  1.00  0.00     0.000 C 
BRANCH  10  11
HETATM   11  C   UNL     1      23.689  12.034 -19.050  1.00  0.00     0.000 C 
BRANCH  11  12
HETATM   12  C   UNL     1      24.338  12.371 -17.693  1.00  0.00     0.000 C 
BRANCH  12  13
HETATM   13  C   UNL     1      25.293  11.295 -17.140  1.00  0.00     0.000 C 
BRANCH  13  14
HETATM   14  C   UNL     1      25.453  11.289 -15.607  1.00  0.00     0.000 C 
BRANCH  14  15
HETATM   15  C   UNL     1      24.271  11.899 -14.825  1.00  0.00     0.000 C 
BRANCH  15  16
HETATM   16  C   UNL     1      24.634  12.482 -13.444  1.00  0.00     0.000 C 
BRANCH  16  17
HETATM   17  C   UNL     1      24.708  11.451 -12.300  1.00  0.00     0.000 C 
BRANCH  17  18
HETATM   18  C   UNL     1      24.738  12.051 -10.880  1.00  0.00     0.000 C 
BRANCH  18  19
HETATM   19  C   UNL     1      25.687  11.344  -9.893  1.00  0.00     0.000 C 
BRANCH  19  20
HETATM   20  C   UNL     1      27.145  11.845  -9.915  1.00  0.00     0.000 C 
BRANCH  20  21
HETATM   21  C   UNL     1      27.307  13.380  -9.920  1.00  0.00    -0.000 C 
BRANCH  21  22
HETATM   22  C   UNL     1      28.328  13.927 -10.934  1.00  0.00    -0.005 C 
HETATM   23  C   UNL     1      27.911  13.709 -12.387  1.00  0.00     0.005 C 
ENDBRANCH  21  22
ENDBRANCH  20  21
ENDBRANCH  19  20
ENDBRANCH  18  19
ENDBRANCH  17  18
ENDBRANCH  16  17
ENDBRANCH  15  16
ENDBRANCH  14  15
ENDBRANCH  13  14
ENDBRANCH  12  13
ENDBRANCH  11  12
ENDBRANCH  10  11
ENDBRANCH   9  10
ENDBRANCH   8   9
ENDBRANCH   7   8
ENDBRANCH   6   7
ENDBRANCH   5   6
ENDBRANCH   3   5
ENDBRANCH   1   3
TORSDOF 19
ENDMDL
MODEL 19
REMARK VINA RESULT:      -3.6      8.786     10.787
REMARK  19 active torsions:
REMARK  status: ('A' for Active; 'I' for Inactive)
REMARK    1  A    between atoms: O_1  and  C_22 
REMARK    2  A    between atoms: C_3  and  C_4 
REMARK    3  A    between atoms: C_3  and  C_5 
REMARK    4  A    between atoms: C_4  and  C_6 
REMARK    5  A    between atoms: C_5  and  C_7 
REMARK    6  A    between atoms: C_6  and  C_8 
REMARK    7  A    between atoms: C_7  and  C_9 
REMARK    8  A    between atoms: C_8  and  C_10 
REMARK    9  A    between atoms: C_9  and  C_11 
REMARK   10  A    between atoms: C_10  and  C_12 
REMARK   11  A    between atoms: C_11  and  C_13 
REMARK   12  A    between atoms: C_12  and  C_14 
REMARK   13  A    between atoms: C_13  and  C_15 
REMARK   14  A    between atoms: C_14  and  C_16 
REMARK   15  A    between atoms: C_15  and  C_17 
REMARK   16  A    between atoms: C_16  and  C_18 
REMARK   17  A    between atoms: C_17  and  C_19 
REMARK   18  A    between atoms: C_18  and  C_20 
REMARK   19  A    between atoms: C_20  and  C_22 
ROOT
HETATM    1  O   UNL     1      31.652  17.965 -14.229  1.00  0.00    -0.776 OA
HETATM    2  H   UNL     1      31.843  18.911 -14.297  1.00  0.00     0.167 HD
ENDROOT
BRANCH   1   3
HETATM    3  C   UNL     1      30.585  17.508 -13.540  1.00  0.00     0.139 C 
HETATM    4  O   UNL     1      30.702  17.229 -12.356  1.00  0.00    -0.650 OA
BRANCH   3   5
HETATM    5  C   UNL     1      29.262  17.303 -14.229  1.00  0.00     0.110 C 
BRANCH   5   6
HETATM    6  C   UNL     1      29.386  16.658 -15.622  1.00  0.00     0.010 C 
BRANCH   6   7
HETATM    7  C   UNL     1      28.841  17.491 -16.801  1.00  0.00     0.001 C 
BRANCH   7   8
HETATM    8  C   UNL     1      29.709  17.460 -18.075  1.00  0.00     0.000 C 
BRANCH   8   9
HETATM    9  C   UNL     1      29.773  16.094 -18.789  1.00  0.00     0.000 C 
BRANCH   9  10
HETATM   10  C   UNL     1      29.134  16.060 -20.191  1.00  0.00     0.000 C 
BRANCH  10  11
HETATM   11  C   UNL     1      28.622  14.677 -20.641  1.00  0.00     0.000 C 
BRANCH  11  12
HETATM   12  C   UNL     1      28.527  13.619 -19.523  1.00  0.00     0.000 C 
BRANCH  12  13
HETATM   13  C   UNL     1      27.093  13.238 -19.105  1.00  0.00     0.000 C 
BRANCH  13  14
HETATM   14  C   UNL     1      26.406  12.195 -20.009  1.00  0.00     0.000 C 
BRANCH  14  15
HETATM   15  C   UNL     1      24.884  12.057 -19.804  1.00  0.00     0.000 C 
BRANCH  15  16
HETATM   16  C   UNL     1      24.426  11.995 -18.333  1.00  0.00     0.000 C 
BRANCH  16  17
HETATM   17  C   UNL     1      25.080  10.879 -17.493  1.00  0.00     0.000 C 
BRANCH  17  18
HETATM   18  C   UNL     1      25.396  11.261 -16.033  1.00  0.00     0.000 C 
BRANCH  18  19
HETATM   19  C   UNL     1      24.359  12.184 -15.361  1.00  0.00     0.000 C 
BRANCH  19  20
HETATM   20  C   UNL     1      23.747  11.637 -14.056  1.00  0.00     0.000 C 
BRANCH  20  21
HETATM   21  C   UNL     1      24.309  12.259 -12.761  1.00  0.00    -0.000 C 
BRANCH  21  22
HETATM   22  C   UNL     1      25.320  11.382 -11.999  1.00  0.00    -0.005 C 
HETATM   23  C   UNL     1      25.288  11.601 -10.488  1.00  0.00     0.005 C 
ENDBRANCH  21  22
ENDBRANCH  20  21
ENDBRANCH  19  20
ENDBRANCH  18  19
ENDBRANCH  17  18
ENDBRANCH  16  17
ENDBRANCH  15  16
ENDBRANCH  14  15
ENDBRANCH  13  14
ENDBRANCH  12  13
ENDBRANCH  11  12
ENDBRANCH  10  11
ENDBRANCH   9  10
ENDBRANCH   8   9
ENDBRANCH   7   8
ENDBRANCH   6   7
ENDBRANCH   5   6
ENDBRANCH   3   5
ENDBRANCH   1   3
TORSDOF 19
ENDMDL
MODEL 20
REMARK VINA RESULT:      -3.6      2.986      7.122
REMARK  19 active torsions:
REMARK  status: ('A' for Active; 'I' for Inactive)
REMARK    1  A    between atoms: O_1  and  C_22 
REMARK    2  A    between atoms: C_3  and  C_4 
REMARK    3  A    between atoms: C_3  and  C_5 
REMARK    4  A    between atoms: C_4  and  C_6 
REMARK    5  A    between atoms: C_5  and  C_7 
REMARK    6  A    between atoms: C_6  and  C_8 
REMARK    7  A    between atoms: C_7  and  C_9 
REMARK    8  A    between atoms: C_8  and  C_10 
REMARK    9  A    between atoms: C_9  and  C_11 
REMARK   10  A    between atoms: C_10  and  C_12 
REMARK   11  A    between atoms: C_11  and  C_13 
REMARK   12  A    between atoms: C_12  and  C_14 
REMARK   13  A    between atoms: C_13  and  C_15 
REMARK   14  A    between atoms: C_14  and  C_16 
REMARK   15  A    between atoms: C_15  and  C_17 
REMARK   16  A    between atoms: C_16  and  C_18 
REMARK   17  A    between atoms: C_17  and  C_19 
REMARK   18  A    between atoms: C_18  and  C_20 
REMARK   19  A    between atoms: C_20  and  C_22 
ROOT
HETATM    1  O   UNL     1      33.126   5.740 -18.290  1.00  0.00    -0.776 OA
HETATM    2  H   UNL     1      33.023   4.782 -18.196  1.00  0.00     0.167 HD
ENDROOT
BRANCH   1   3
HETATM    3  C   UNL     1      33.235   6.322 -19.503  1.00  0.00     0.139 C 
HETATM    4  O   UNL     1      32.239   6.765 -20.055  1.00  0.00    -0.650 OA
BRANCH   3   5
HETATM    5  C   UNL     1      34.569   6.393 -20.198  1.00  0.00     0.110 C 
BRANCH   5   6
HETATM    6  C   UNL     1      35.614   7.234 -19.441  1.00  0.00     0.010 C 
BRANCH   6   7
HETATM    7  C   UNL     1      35.087   8.518 -18.768  1.00  0.00     0.001 C 
BRANCH   7   8
HETATM    8  C   UNL     1      36.126   9.283 -17.924  1.00  0.00     0.000 C 
BRANCH   8   9
HETATM    9  C   UNL     1      35.969   9.128 -16.398  1.00  0.00     0.000 C 
BRANCH   9  10
HETATM   10  C   UNL     1      34.796   8.235 -15.950  1.00  0.00     0.000 C 
BRANCH  10  11
HETATM   11  C   UNL     1      35.204   6.870 -15.359  1.00  0.00     0.000 C 
BRANCH  11  12
HETATM   12  C   UNL     1      34.423   6.445 -14.099  1.00  0.00     0.000 C 
BRANCH  12  13
HETATM   13  C   UNL     1      34.693   7.301 -12.845  1.00  0.00     0.000 C 
BRANCH  13  14
HETATM   14  C   UNL     1      34.024   6.793 -11.552  1.00  0.00     0.000 C 
BRANCH  14  15
HETATM   15  C   UNL     1      32.993   5.663 -11.751  1.00  0.00     0.000 C 
BRANCH  15  16
HETATM   16  C   UNL     1      31.559   5.999 -11.293  1.00  0.00     0.000 C 
BRANCH  16  17
HETATM   17  C   UNL     1      30.504   6.022 -12.418  1.00  0.00     0.000 C 
BRANCH  17  18
HETATM   18  C   UNL     1      31.055   6.340 -13.823  1.00  0.00     0.000 C 
BRANCH  18  19
HETATM   19  C   UNL     1      30.766   7.766 -14.330  1.00  0.00     0.000 C 
BRANCH  19  20
HETATM   20  C   UNL     1      31.561   8.883 -13.626  1.00  0.00     0.000 C 
BRANCH  20  21
HETATM   21  C   UNL     1      30.703  10.008 -13.011  1.00  0.00    -0.000 C 
BRANCH  21  22
HETATM   22  C   UNL     1      30.864  10.199 -11.492  1.00  0.00    -0.005 C 
HETATM   23  C   UNL     1      29.986   9.259 -10.669  1.00  0.00     0.005 C 
ENDBRANCH  21  22
ENDBRANCH  20  21
ENDBRANCH  19  20
ENDBRANCH  18  19
ENDBRANCH  17  18
ENDBRANCH  16  17
ENDBRANCH  15  16
ENDBRANCH  14  15
ENDBRANCH  13  14
ENDBRANCH  12  13
ENDBRANCH  11  12
ENDBRANCH  10  11
ENDBRANCH   9  10
ENDBRANCH   8   9
ENDBRANCH   7   8
ENDBRANCH   6   7
ENDBRANCH   5   6
ENDBRANCH   3   5
ENDBRANCH   1   3
TORSDOF 19
ENDMDL
