MODEL 1
REMARK VINA RESULT:      -5.9      0.000      0.000
REMARK  14 active torsions:
REMARK  status: ('A' for Active; 'I' for Inactive)
REMARK    1  A    between atoms: O_1  and  C_11 
REMARK    2  A    between atoms: C_3  and  C_4 
REMARK    3  A    between atoms: C_3  and  C_5 
REMARK    4  A    between atoms: C_4  and  C_6 
REMARK    5  A    between atoms: C_5  and  C_11 
REMARK    6  A    between atoms: C_7  and  C_8 
REMARK    7  A    between atoms: C_7  and  C_9 
REMARK    8  A    between atoms: C_10  and  C_12 
REMARK    9  A    between atoms: C_10  and  C_14 
REMARK   10  A    between atoms: C_13  and  C_16 
REMARK   11  A    between atoms: C_13  and  C_17 
REMARK   12  A    between atoms: C_15  and  C_18 
REMARK   13  A    between atoms: C_15  and  C_19 
REMARK   14  A    between atoms: C_20  and  C_21 
ROOT
HETATM    1  O   UNL     1      29.383   9.313  -6.545  1.00  0.00    -0.776 OA
HETATM    2  H   UNL     1      30.132   8.792  -6.867  1.00  0.00     0.167 HD
ENDROOT
BRANCH   1   3
HETATM    3  C   UNL     1      29.388   9.871  -5.318  1.00  0.00     0.139 C 
HETATM    4  O   UNL     1      30.104   9.406  -4.442  1.00  0.00    -0.650 OA
BRANCH   3   5
HETATM    5  C   UNL     1      28.506  11.063  -5.052  1.00  0.00     0.110 C 
BRANCH   5   6
HETATM    6  C   UNL     1      27.802  11.584  -6.314  1.00  0.00     0.014 C 
BRANCH   6   7
HETATM    7  C   UNL     1      26.801  12.690  -5.967  1.00  0.00     0.027 C 
BRANCH   7   8
HETATM    8  C   UNL     1      25.481  12.085  -5.566  1.00  0.00    -0.030 C 
HETATM    9  C   UNL     1      24.369  12.072  -6.327  1.00  0.00    -0.027 C 
BRANCH   9  10
HETATM   10  C   UNL     1      24.253  12.634  -7.721  1.00  0.00     0.053 C 
BRANCH  10  11
HETATM   11  C   UNL     1      24.044  11.532  -8.733  1.00  0.00    -0.027 C 
HETATM   12  C   UNL     1      24.941  11.055  -9.619  1.00  0.00    -0.027 C 
BRANCH  12  13
HETATM   13  C   UNL     1      26.372  11.502  -9.808  1.00  0.00     0.053 C 
BRANCH  13  14
HETATM   14  C   UNL     1      26.855  11.034 -11.156  1.00  0.00    -0.027 C 
HETATM   15  C   UNL     1      26.443  11.510 -12.347  1.00  0.00    -0.027 C 
BRANCH  15  16
HETATM   16  C   UNL     1      25.451  12.627 -12.554  1.00  0.00     0.053 C 
BRANCH  16  17
HETATM   17  C   UNL     1      24.132  12.074 -13.050  1.00  0.00    -0.027 C 
HETATM   18  C   UNL     1      23.723  11.960 -14.330  1.00  0.00    -0.027 C 
BRANCH  18  19
HETATM   19  C   UNL     1      24.488  12.367 -15.561  1.00  0.00     0.053 C 
BRANCH  19  20
HETATM   20  C   UNL     1      25.193  11.162 -16.133  1.00  0.00    -0.027 C 
HETATM   21  C   UNL     1      25.522  11.007 -17.428  1.00  0.00    -0.031 C 
BRANCH  21  22
HETATM   22  C   UNL     1      25.226  12.029 -18.497  1.00  0.00     0.022 C 
HETATM   23  C   UNL     1      23.797  11.897 -19.014  1.00  0.00     0.009 C 
ENDBRANCH  21  22
ENDBRANCH  19  20
ENDBRANCH  18  19
ENDBRANCH  16  17
ENDBRANCH  15  16
ENDBRANCH  13  14
ENDBRANCH  12  13
ENDBRANCH  10  11
ENDBRANCH   9  10
ENDBRANCH   7   8
ENDBRANCH   6   7
ENDBRANCH   5   6
ENDBRANCH   3   5
ENDBRANCH   1   3
TORSDOF 14
ENDMDL
MODEL 2
REMARK VINA RESULT:      -5.7      6.725     10.717
REMARK  14 active torsions:
REMARK  status: ('A' for Active; 'I' for Inactive)
REMARK    1  A    between atoms: O_1  and  C_11 
REMARK    2  A    between atoms: C_3  and  C_4 
REMARK    3  A    between atoms: C_3  and  C_5 
REMARK    4  A    between atoms: C_4  and  C_6 
REMARK    5  A    between atoms: C_5  and  C_11 
REMARK    6  A    between atoms: C_7  and  C_8 
REMARK    7  A    between atoms: C_7  and  C_9 
REMARK    8  A    between atoms: C_10  and  C_12 
REMARK    9  A    between atoms: C_10  and  C_14 
REMARK   10  A    between atoms: C_13  and  C_16 
REMARK   11  A    between atoms: C_13  and  C_17 
REMARK   12  A    between atoms: C_15  and  C_18 
REMARK   13  A    between atoms: C_15  and  C_19 
REMARK   14  A    between atoms: C_20  and  C_21 
ROOT
HETATM    1  O   UNL     1      24.037  13.042 -22.158  1.00  0.00    -0.776 OA
HETATM    2  H   UNL     1      24.607  13.823 -22.204  1.00  0.00     0.167 HD
ENDROOT
BRANCH   1   3
HETATM    3  C   UNL     1      24.388  11.879 -22.743  1.00  0.00     0.139 C 
HETATM    4  O   UNL     1      24.054  11.654 -23.897  1.00  0.00    -0.650 OA
BRANCH   3   5
HETATM    5  C   UNL     1      25.191  10.877 -21.953  1.00  0.00     0.110 C 
BRANCH   5   6
HETATM    6  C   UNL     1      26.194  11.531 -20.992  1.00  0.00     0.014 C 
BRANCH   6   7
HETATM    7  C   UNL     1      25.650  11.549 -19.561  1.00  0.00     0.027 C 
BRANCH   7   8
HETATM    8  C   UNL     1      26.769  11.819 -18.587  1.00  0.00    -0.030 C 
HETATM    9  C   UNL     1      26.715  11.596 -17.259  1.00  0.00    -0.027 C 
BRANCH   9  10
HETATM   10  C   UNL     1      25.541  11.012 -16.515  1.00  0.00     0.053 C 
BRANCH  10  11
HETATM   11  C   UNL     1      24.535  12.084 -16.168  1.00  0.00    -0.027 C 
HETATM   12  C   UNL     1      23.886  12.249 -14.997  1.00  0.00    -0.027 C 
BRANCH  12  13
HETATM   13  C   UNL     1      24.015  11.406 -13.750  1.00  0.00     0.053 C 
BRANCH  13  14
HETATM   14  C   UNL     1      24.502  12.275 -12.621  1.00  0.00    -0.027 C 
HETATM   15  C   UNL     1      25.765  12.324 -12.155  1.00  0.00    -0.027 C 
BRANCH  15  16
HETATM   16  C   UNL     1      26.936  11.549 -12.704  1.00  0.00     0.053 C 
BRANCH  16  17
HETATM   17  C   UNL     1      27.694  12.385 -13.713  1.00  0.00    -0.027 C 
HETATM   18  C   UNL     1      28.847  12.068 -14.337  1.00  0.00    -0.027 C 
BRANCH  18  19
HETATM   19  C   UNL     1      29.649  10.805 -14.163  1.00  0.00     0.053 C 
BRANCH  19  20
HETATM   20  C   UNL     1      29.489   9.939 -15.386  1.00  0.00    -0.027 C 
HETATM   21  C   UNL     1      30.235   8.854 -15.663  1.00  0.00    -0.031 C 
BRANCH  21  22
HETATM   22  C   UNL     1      31.346   8.352 -14.775  1.00  0.00     0.022 C 
HETATM   23  C   UNL     1      30.996   7.004 -14.153  1.00  0.00     0.009 C 
ENDBRANCH  21  22
ENDBRANCH  19  20
ENDBRANCH  18  19
ENDBRANCH  16  17
ENDBRANCH  15  16
ENDBRANCH  13  14
ENDBRANCH  12  13
ENDBRANCH  10  11
ENDBRANCH   9  10
ENDBRANCH   7   8
ENDBRANCH   6   7
ENDBRANCH   5   6
ENDBRANCH   3   5
ENDBRANCH   1   3
TORSDOF 14
ENDMDL
MODEL 3
REMARK VINA RESULT:      -5.7      5.554     11.694
REMARK  14 active torsions:
REMARK  status: ('A' for Active; 'I' for Inactive)
REMARK    1  A    between atoms: O_1  and  C_11 
REMARK    2  A    between atoms: C_3  and  C_4 
REMARK    3  A    between atoms: C_3  and  C_5 
REMARK    4  A    between atoms: C_4  and  C_6 
REMARK    5  A    between atoms: C_5  and  C_11 
REMARK    6  A    between atoms: C_7  and  C_8 
REMARK    7  A    between atoms: C_7  and  C_9 
REMARK    8  A    between atoms: C_10  and  C_12 
REMARK    9  A    between atoms: C_10  and  C_14 
REMARK   10  A    between atoms: C_13  and  C_16 
REMARK   11  A    between atoms: C_13  and  C_17 
REMARK   12  A    between atoms: C_15  and  C_18 
REMARK   13  A    between atoms: C_15  and  C_19 
REMARK   14  A    between atoms: C_20  and  C_21 
ROOT
HETATM    1  O   UNL     1      29.456  17.490 -21.518  1.00  0.00    -0.776 OA
HETATM    2  H   UNL     1      30.231  17.732 -22.046  1.00  0.00     0.167 HD
ENDROOT
BRANCH   1   3
HETATM    3  C   UNL     1      29.270  16.230 -21.076  1.00  0.00     0.139 C 
HETATM    4  O   UNL     1      29.733  15.891 -19.996  1.00  0.00    -0.650 OA
BRANCH   3   5
HETATM    5  C   UNL     1      28.490  15.264 -21.929  1.00  0.00     0.110 C 
BRANCH   5   6
HETATM    6  C   UNL     1      27.853  14.124 -21.121  1.00  0.00     0.014 C 
BRANCH   6   7
HETATM    7  C   UNL     1      27.633  12.887 -21.996  1.00  0.00     0.027 C 
BRANCH   7   8
HETATM    8  C   UNL     1      26.300  12.979 -22.694  1.00  0.00    -0.030 C 
HETATM    9  C   UNL     1      25.196  12.283 -22.359  1.00  0.00    -0.027 C 
BRANCH   9  10
HETATM   10  C   UNL     1      25.088  11.310 -21.212  1.00  0.00     0.053 C 
BRANCH  10  11
HETATM   11  C   UNL     1      24.177  11.846 -20.133  1.00  0.00    -0.027 C 
HETATM   12  C   UNL     1      24.536  12.339 -18.931  1.00  0.00    -0.027 C 
BRANCH  12  13
HETATM   13  C   UNL     1      25.934  12.481 -18.377  1.00  0.00     0.053 C 
BRANCH  13  14
HETATM   14  C   UNL     1      26.291  11.225 -17.625  1.00  0.00    -0.027 C 
HETATM   15  C   UNL     1      26.307  11.090 -16.285  1.00  0.00    -0.027 C 
BRANCH  15  16
HETATM   16  C   UNL     1      25.930  12.155 -15.287  1.00  0.00     0.053 C 
BRANCH  16  17
HETATM   17  C   UNL     1      24.483  12.000 -14.874  1.00  0.00    -0.027 C 
HETATM   18  C   UNL     1      24.013  11.531 -13.700  1.00  0.00    -0.027 C 
BRANCH  18  19
HETATM   19  C   UNL     1      24.829  11.044 -12.532  1.00  0.00     0.053 C 
BRANCH  19  20
HETATM   20  C   UNL     1      25.535  12.214 -11.893  1.00  0.00    -0.027 C 
HETATM   21  C   UNL     1      25.698  12.383 -10.569  1.00  0.00    -0.031 C 
BRANCH  21  22
HETATM   22  C   UNL     1      25.190  11.415  -9.531  1.00  0.00     0.022 C 
HETATM   23  C   UNL     1      23.768  11.757  -9.099  1.00  0.00     0.009 C 
ENDBRANCH  21  22
ENDBRANCH  19  20
ENDBRANCH  18  19
ENDBRANCH  16  17
ENDBRANCH  15  16
ENDBRANCH  13  14
ENDBRANCH  12  13
ENDBRANCH  10  11
ENDBRANCH   9  10
ENDBRANCH   7   8
ENDBRANCH   6   7
ENDBRANCH   5   6
ENDBRANCH   3   5
ENDBRANCH   1   3
TORSDOF 14
ENDMDL
MODEL 4
REMARK VINA RESULT:      -5.5      2.417      5.637
REMARK  14 active torsions:
REMARK  status: ('A' for Active; 'I' for Inactive)
REMARK    1  A    between atoms: O_1  and  C_11 
REMARK    2  A    between atoms: C_3  and  C_4 
REMARK    3  A    between atoms: C_3  and  C_5 
REMARK    4  A    between atoms: C_4  and  C_6 
REMARK    5  A    between atoms: C_5  and  C_11 
REMARK    6  A    between atoms: C_7  and  C_8 
REMARK    7  A    between atoms: C_7  and  C_9 
REMARK    8  A    between atoms: C_10  and  C_12 
REMARK    9  A    between atoms: C_10  and  C_14 
REMARK   10  A    between atoms: C_13  and  C_16 
REMARK   11  A    between atoms: C_13  and  C_17 
REMARK   12  A    between atoms: C_15  and  C_18 
REMARK   13  A    between atoms: C_15  and  C_19 
REMARK   14  A    between atoms: C_20  and  C_21 
ROOT
HETATM    1  O   UNL     1      26.177  10.857  -7.689  1.00  0.00    -0.776 OA
HETATM    2  H   UNL     1      26.848  10.163  -7.622  1.00  0.00     0.167 HD
ENDROOT
BRANCH   1   3
HETATM    3  C   UNL     1      26.497  12.160  -7.551  1.00  0.00     0.139 C 
HETATM    4  O   UNL     1      26.035  12.803  -6.619  1.00  0.00    -0.650 OA
BRANCH   3   5
HETATM    5  C   UNL     1      27.422  12.796  -8.556  1.00  0.00     0.110 C 
BRANCH   5   6
HETATM    6  C   UNL     1      26.924  12.665 -10.002  1.00  0.00     0.014 C 
BRANCH   6   7
HETATM    7  C   UNL     1      27.595  11.484 -10.709  1.00  0.00     0.027 C 
BRANCH   7   8
HETATM    8  C   UNL     1      27.717  11.768 -12.185  1.00  0.00    -0.030 C 
HETATM    9  C   UNL     1      26.726  11.631 -13.088  1.00  0.00    -0.027 C 
BRANCH   9  10
HETATM   10  C   UNL     1      25.314  11.198 -12.782  1.00  0.00     0.053 C 
BRANCH  10  11
HETATM   11  C   UNL     1      24.314  12.049 -13.528  1.00  0.00    -0.027 C 
HETATM   12  C   UNL     1      24.087  12.068 -14.856  1.00  0.00    -0.027 C 
BRANCH  12  13
HETATM   13  C   UNL     1      24.771  11.238 -15.917  1.00  0.00     0.053 C 
BRANCH  13  14
HETATM   14  C   UNL     1      25.502  12.158 -16.860  1.00  0.00    -0.027 C 
HETATM   15  C   UNL     1      25.228  12.319 -18.169  1.00  0.00    -0.027 C 
BRANCH  15  16
HETATM   16  C   UNL     1      24.113  11.644 -18.925  1.00  0.00     0.053 C 
BRANCH  16  17
HETATM   17  C   UNL     1      23.854  12.360 -20.233  1.00  0.00    -0.027 C 
HETATM   18  C   UNL     1      24.391  12.082 -21.439  1.00  0.00    -0.027 C 
BRANCH  18  19
HETATM   19  C   UNL     1      25.380  10.991 -21.755  1.00  0.00     0.053 C 
BRANCH  19  20
HETATM   20  C   UNL     1      26.692  11.609 -22.166  1.00  0.00    -0.027 C 
HETATM   21  C   UNL     1      27.815  11.594 -21.425  1.00  0.00    -0.031 C 
BRANCH  21  22
HETATM   22  C   UNL     1      27.913  10.948 -20.066  1.00  0.00     0.022 C 
HETATM   23  C   UNL     1      28.841  11.732 -19.143  1.00  0.00     0.009 C 
ENDBRANCH  21  22
ENDBRANCH  19  20
ENDBRANCH  18  19
ENDBRANCH  16  17
ENDBRANCH  15  16
ENDBRANCH  13  14
ENDBRANCH  12  13
ENDBRANCH  10  11
ENDBRANCH   9  10
ENDBRANCH   7   8
ENDBRANCH   6   7
ENDBRANCH   5   6
ENDBRANCH   3   5
ENDBRANCH   1   3
TORSDOF 14
ENDMDL
MODEL 5
REMARK VINA RESULT:      -5.5      5.227      8.296
REMARK  14 active torsions:
REMARK  status: ('A' for Active; 'I' for Inactive)
REMARK    1  A    between atoms: O_1  and  C_11 
REMARK    2  A    between atoms: C_3  and  C_4 
REMARK    3  A    between atoms: C_3  and  C_5 
REMARK    4  A    between atoms: C_4  and  C_6 
REMARK    5  A    between atoms: C_5  and  C_11 
REMARK    6  A    between atoms: C_7  and  C_8 
REMARK    7  A    between atoms: C_7  and  C_9 
REMARK    8  A    between atoms: C_10  and  C_12 
REMARK    9  A    between atoms: C_10  and  C_14 
REMARK   10  A    between atoms: C_13  and  C_16 
REMARK   11  A    between atoms: C_13  and  C_17 
REMARK   12  A    between atoms: C_15  and  C_18 
REMARK   13  A    between atoms: C_15  and  C_19 
REMARK   14  A    between atoms: C_20  and  C_21 
ROOT
HETATM    1  O   UNL     1      25.325  10.859 -16.764  1.00  0.00    -0.776 OA
HETATM    2  H   UNL     1      24.992  10.292 -17.474  1.00  0.00     0.167 HD
ENDROOT
BRANCH   1   3
HETATM    3  C   UNL     1      24.768  12.058 -16.500  1.00  0.00     0.139 C 
HETATM    4  O   UNL     1      24.815  12.947 -17.339  1.00  0.00    -0.650 OA
BRANCH   3   5
HETATM    5  C   UNL     1      24.096  12.275 -15.169  1.00  0.00     0.110 C 
BRANCH   5   6
HETATM    6  C   UNL     1      24.590  11.311 -14.081  1.00  0.00     0.014 C 
BRANCH   6   7
HETATM    7  C   UNL     1      24.634  12.002 -12.715  1.00  0.00     0.027 C 
BRANCH   7   8
HETATM    8  C   UNL     1      25.178  11.056 -11.675  1.00  0.00    -0.030 C 
HETATM    9  C   UNL     1      26.430  11.080 -11.180  1.00  0.00    -0.027 C 
BRANCH   9  10
HETATM   10  C   UNL     1      27.502  12.073 -11.555  1.00  0.00     0.053 C 
BRANCH  10  11
HETATM   11  C   UNL     1      28.211  11.649 -12.820  1.00  0.00    -0.027 C 
HETATM   12  C   UNL     1      28.252  12.309 -13.995  1.00  0.00    -0.027 C 
BRANCH  12  13
HETATM   13  C   UNL     1      27.605  13.633 -14.326  1.00  0.00     0.053 C 
BRANCH  13  14
HETATM   14  C   UNL     1      27.986  14.026 -15.730  1.00  0.00    -0.027 C 
HETATM   15  C   UNL     1      28.921  14.934 -16.065  1.00  0.00    -0.027 C 
BRANCH  15  16
HETATM   16  C   UNL     1      29.792  15.699 -15.100  1.00  0.00     0.053 C 
BRANCH  16  17
HETATM   17  C   UNL     1      29.344  17.142 -15.017  1.00  0.00    -0.027 C 
HETATM   18  C   UNL     1      29.261  17.910 -13.912  1.00  0.00    -0.027 C 
BRANCH  18  19
HETATM   19  C   UNL     1      29.591  17.500 -12.501  1.00  0.00     0.053 C 
BRANCH  19  20
HETATM   20  C   UNL     1      28.540  16.541 -12.000  1.00  0.00    -0.027 C 
HETATM   21  C   UNL     1      28.791  15.433 -11.281  1.00  0.00    -0.031 C 
BRANCH  21  22
HETATM   22  C   UNL     1      30.175  14.992 -10.874  1.00  0.00     0.022 C 
HETATM   23  C   UNL     1      30.809  14.099 -11.936  1.00  0.00     0.009 C 
ENDBRANCH  21  22
ENDBRANCH  19  20
ENDBRANCH  18  19
ENDBRANCH  16  17
ENDBRANCH  15  16
ENDBRANCH  13  14
ENDBRANCH  12  13
ENDBRANCH  10  11
ENDBRANCH   9  10
ENDBRANCH   7   8
ENDBRANCH   6   7
ENDBRANCH   5   6
ENDBRANCH   3   5
ENDBRANCH   1   3
TORSDOF 14
ENDMDL
MODEL 6
REMARK VINA RESULT:      -5.3      2.757      5.481
REMARK  14 active torsions:
REMARK  status: ('A' for Active; 'I' for Inactive)
REMARK    1  A    between atoms: O_1  and  C_11 
REMARK    2  A    between atoms: C_3  and  C_4 
REMARK    3  A    between atoms: C_3  and  C_5 
REMARK    4  A    between atoms: C_4  and  C_6 
REMARK    5  A    between atoms: C_5  and  C_11 
REMARK    6  A    between atoms: C_7  and  C_8 
REMARK    7  A    between atoms: C_7  and  C_9 
REMARK    8  A    between atoms: C_10  and  C_12 
REMARK    9  A    between atoms: C_10  and  C_14 
REMARK   10  A    between atoms: C_13  and  C_16 
REMARK   11  A    between atoms: C_13  and  C_17 
REMARK   12  A    between atoms: C_15  and  C_18 
REMARK   13  A    between atoms: C_15  and  C_19 
REMARK   14  A    between atoms: C_20  and  C_21 
ROOT
HETATM    1  O   UNL     1      25.389  10.392  -7.164  1.00  0.00    -0.776 OA
HETATM    2  H   UNL     1      24.453  10.296  -7.389  1.00  0.00     0.167 HD
ENDROOT
BRANCH   1   3
HETATM    3  C   UNL     1      25.960  11.606  -7.028  1.00  0.00     0.139 C 
HETATM    4  O   UNL     1      25.409  12.463  -6.351  1.00  0.00    -0.650 OA
BRANCH   3   5
HETATM    5  C   UNL     1      27.272  11.878  -7.716  1.00  0.00     0.110 C 
BRANCH   5   6
HETATM    6  C   UNL     1      27.152  12.894  -8.862  1.00  0.00     0.014 C 
BRANCH   6   7
HETATM    7  C   UNL     1      26.040  12.494  -9.836  1.00  0.00     0.027 C 
BRANCH   7   8
HETATM    8  C   UNL     1      26.553  11.466 -10.811  1.00  0.00    -0.030 C 
HETATM    9  C   UNL     1      26.332  11.476 -12.140  1.00  0.00    -0.027 C 
BRANCH   9  10
HETATM   10  C   UNL     1      25.558  12.530 -12.892  1.00  0.00     0.053 C 
BRANCH  10  11
HETATM   11  C   UNL     1      24.233  11.987 -13.374  1.00  0.00    -0.027 C 
HETATM   12  C   UNL     1      23.795  11.910 -14.646  1.00  0.00    -0.027 C 
BRANCH  12  13
HETATM   13  C   UNL     1      24.525  12.342 -15.896  1.00  0.00     0.053 C 
BRANCH  13  14
HETATM   14  C   UNL     1      25.050  11.119 -16.602  1.00  0.00    -0.027 C 
HETATM   15  C   UNL     1      26.304  10.636 -16.509  1.00  0.00    -0.027 C 
BRANCH  15  16
HETATM   16  C   UNL     1      27.405  11.203 -15.648  1.00  0.00     0.053 C 
BRANCH  16  17
HETATM   17  C   UNL     1      28.255  12.166 -16.448  1.00  0.00    -0.027 C 
HETATM   18  C   UNL     1      28.618  13.418 -16.102  1.00  0.00    -0.027 C 
BRANCH  18  19
HETATM   19  C   UNL     1      28.250  14.147 -14.837  1.00  0.00     0.053 C 
BRANCH  19  20
HETATM   20  C   UNL     1      29.140  13.679 -13.713  1.00  0.00    -0.027 C 
HETATM   21  C   UNL     1      29.032  14.072 -12.432  1.00  0.00    -0.031 C 
BRANCH  21  22
HETATM   22  C   UNL     1      27.992  15.048 -11.939  1.00  0.00     0.022 C 
HETATM   23  C   UNL     1      28.561  16.458 -11.827  1.00  0.00     0.009 C 
ENDBRANCH  21  22
ENDBRANCH  19  20
ENDBRANCH  18  19
ENDBRANCH  16  17
ENDBRANCH  15  16
ENDBRANCH  13  14
ENDBRANCH  12  13
ENDBRANCH  10  11
ENDBRANCH   9  10
ENDBRANCH   7   8
ENDBRANCH   6   7
ENDBRANCH   5   6
ENDBRANCH   3   5
ENDBRANCH   1   3
TORSDOF 14
ENDMDL
MODEL 7
REMARK VINA RESULT:      -5.3      7.472      9.762
REMARK  14 active torsions:
REMARK  status: ('A' for Active; 'I' for Inactive)
REMARK    1  A    between atoms: O_1  and  C_11 
REMARK    2  A    between atoms: C_3  and  C_4 
REMARK    3  A    between atoms: C_3  and  C_5 
REMARK    4  A    between atoms: C_4  and  C_6 
REMARK    5  A    between atoms: C_5  and  C_11 
REMARK    6  A    between atoms: C_7  and  C_8 
REMARK    7  A    between atoms: C_7  and  C_9 
REMARK    8  A    between atoms: C_10  and  C_12 
REMARK    9  A    between atoms: C_10  and  C_14 
REMARK   10  A    between atoms: C_13  and  C_16 
REMARK   11  A    between atoms: C_13  and  C_17 
REMARK   12  A    between atoms: C_15  and  C_18 
REMARK   13  A    between atoms: C_15  and  C_19 
REMARK   14  A    between atoms: C_20  and  C_21 
ROOT
HETATM    1  O   UNL     1      31.549   5.238  -7.289  1.00  0.00    -0.776 OA
HETATM    2  H   UNL     1      30.760   4.677  -7.297  1.00  0.00     0.167 HD
ENDROOT
BRANCH   1   3
HETATM    3  C   UNL     1      31.466   6.572  -7.469  1.00  0.00     0.139 C 
HETATM    4  O   UNL     1      31.092   7.287  -6.550  1.00  0.00    -0.650 OA
BRANCH   3   5
HETATM    5  C   UNL     1      31.839   7.153  -8.808  1.00  0.00     0.110 C 
BRANCH   5   6
HETATM    6  C   UNL     1      32.944   6.361  -9.523  1.00  0.00     0.014 C 
BRANCH   6   7
HETATM    7  C   UNL     1      32.436   5.783 -10.846  1.00  0.00     0.027 C 
BRANCH   7   8
HETATM    8  C   UNL     1      30.995   6.167 -11.059  1.00  0.00    -0.030 C 
HETATM    9  C   UNL     1      30.389   6.283 -12.257  1.00  0.00    -0.027 C 
BRANCH   9  10
HETATM   10  C   UNL     1      31.035   6.023 -13.595  1.00  0.00     0.053 C 
BRANCH  10  11
HETATM   11  C   UNL     1      30.815   7.185 -14.535  1.00  0.00    -0.027 C 
HETATM   12  C   UNL     1      30.885   7.171 -15.882  1.00  0.00    -0.027 C 
BRANCH  12  13
HETATM   13  C   UNL     1      31.193   5.991 -16.773  1.00  0.00     0.053 C 
BRANCH  13  14
HETATM   14  C   UNL     1      30.811   6.336 -18.189  1.00  0.00    -0.027 C 
HETATM   15  C   UNL     1      31.640   6.829 -19.128  1.00  0.00    -0.027 C 
BRANCH  15  16
HETATM   16  C   UNL     1      33.115   7.089 -18.952  1.00  0.00     0.053 C 
BRANCH  16  17
HETATM   17  C   UNL     1      33.334   8.326 -18.109  1.00  0.00    -0.027 C 
HETATM   18  C   UNL     1      34.246   8.499 -17.131  1.00  0.00    -0.027 C 
BRANCH  18  19
HETATM   19  C   UNL     1      35.256   7.490 -16.651  1.00  0.00     0.053 C 
BRANCH  19  20
HETATM   20  C   UNL     1      34.557   6.433 -15.834  1.00  0.00    -0.027 C 
HETATM   21  C   UNL     1      34.480   6.425 -14.491  1.00  0.00    -0.031 C 
BRANCH  21  22
HETATM   22  C   UNL     1      35.091   7.486 -13.610  1.00  0.00     0.022 C 
HETATM   23  C   UNL     1      34.029   8.434 -13.062  1.00  0.00     0.009 C 
ENDBRANCH  21  22
ENDBRANCH  19  20
ENDBRANCH  18  19
ENDBRANCH  16  17
ENDBRANCH  15  16
ENDBRANCH  13  14
ENDBRANCH  12  13
ENDBRANCH  10  11
ENDBRANCH   9  10
ENDBRANCH   7   8
ENDBRANCH   6   7
ENDBRANCH   5   6
ENDBRANCH   3   5
ENDBRANCH   1   3
TORSDOF 14
ENDMDL
MODEL 8
REMARK VINA RESULT:      -5.3      8.003     10.955
REMARK  14 active torsions:
REMARK  status: ('A' for Active; 'I' for Inactive)
REMARK    1  A    between atoms: O_1  and  C_11 
REMARK    2  A    between atoms: C_3  and  C_4 
REMARK    3  A    between atoms: C_3  and  C_5 
REMARK    4  A    between atoms: C_4  and  C_6 
REMARK    5  A    between atoms: C_5  and  C_11 
REMARK    6  A    between atoms: C_7  and  C_8 
REMARK    7  A    between atoms: C_7  and  C_9 
REMARK    8  A    between atoms: C_10  and  C_12 
REMARK    9  A    between atoms: C_10  and  C_14 
REMARK   10  A    between atoms: C_13  and  C_16 
REMARK   11  A    between atoms: C_13  and  C_17 
REMARK   12  A    between atoms: C_15  and  C_18 
REMARK   13  A    between atoms: C_15  and  C_19 
REMARK   14  A    between atoms: C_20  and  C_21 
ROOT
HETATM    1  O   UNL     1      31.647  10.390 -16.802  1.00  0.00    -0.776 OA
HETATM    2  H   UNL     1      31.458  11.041 -17.492  1.00  0.00     0.167 HD
ENDROOT
BRANCH   1   3
HETATM    3  C   UNL     1      31.297   9.095 -16.940  1.00  0.00     0.139 C 
HETATM    4  O   UNL     1      30.377   8.791 -17.688  1.00  0.00    -0.650 OA
BRANCH   3   5
HETATM    5  C   UNL     1      32.053   8.047 -16.166  1.00  0.00     0.110 C 
BRANCH   5   6
HETATM    6  C   UNL     1      31.349   6.682 -16.154  1.00  0.00     0.014 C 
BRANCH   6   7
HETATM    7  C   UNL     1      31.189   6.160 -14.723  1.00  0.00     0.027 C 
BRANCH   7   8
HETATM    8  C   UNL     1      30.837   7.295 -13.796  1.00  0.00    -0.030 C 
HETATM    9  C   UNL     1      31.003   7.287 -12.459  1.00  0.00    -0.027 C 
BRANCH   9  10
HETATM   10  C   UNL     1      31.593   6.155 -11.655  1.00  0.00     0.053 C 
BRANCH  10  11
HETATM   11  C   UNL     1      30.921   6.042 -10.307  1.00  0.00    -0.027 C 
HETATM   12  C   UNL     1      31.175   6.772  -9.203  1.00  0.00    -0.027 C 
BRANCH  12  13
HETATM   13  C   UNL     1      32.187   7.883  -9.050  1.00  0.00     0.053 C 
BRANCH  13  14
HETATM   14  C   UNL     1      33.297   7.411  -8.148  1.00  0.00    -0.027 C 
HETATM   15  C   UNL     1      34.428   6.800  -8.548  1.00  0.00    -0.027 C 
BRANCH  15  16
HETATM   16  C   UNL     1      34.815   6.510  -9.976  1.00  0.00     0.053 C 
BRANCH  16  17
HETATM   17  C   UNL     1      35.706   7.610 -10.513  1.00  0.00    -0.027 C 
HETATM   18  C   UNL     1      35.538   8.317 -11.649  1.00  0.00    -0.027 C 
BRANCH  18  19
HETATM   19  C   UNL     1      34.423   8.165 -12.650  1.00  0.00     0.053 C 
BRANCH  19  20
HETATM   20  C   UNL     1      34.684   6.956 -13.511  1.00  0.00    -0.027 C 
HETATM   21  C   UNL     1      35.392   6.965 -14.655  1.00  0.00    -0.031 C 
BRANCH  21  22
HETATM   22  C   UNL     1      36.027   8.202 -15.238  1.00  0.00     0.022 C 
HETATM   23  C   UNL     1      35.627   8.399 -16.697  1.00  0.00     0.009 C 
ENDBRANCH  21  22
ENDBRANCH  19  20
ENDBRANCH  18  19
ENDBRANCH  16  17
ENDBRANCH  15  16
ENDBRANCH  13  14
ENDBRANCH  12  13
ENDBRANCH  10  11
ENDBRANCH   9  10
ENDBRANCH   7   8
ENDBRANCH   6   7
ENDBRANCH   5   6
ENDBRANCH   3   5
ENDBRANCH   1   3
TORSDOF 14
ENDMDL
MODEL 9
REMARK VINA RESULT:      -5.2      5.349     10.511
REMARK  14 active torsions:
REMARK  status: ('A' for Active; 'I' for Inactive)
REMARK    1  A    between atoms: O_1  and  C_11 
REMARK    2  A    between atoms: C_3  and  C_4 
REMARK    3  A    between atoms: C_3  and  C_5 
REMARK    4  A    between atoms: C_4  and  C_6 
REMARK    5  A    between atoms: C_5  and  C_11 
REMARK    6  A    between atoms: C_7  and  C_8 
REMARK    7  A    between atoms: C_7  and  C_9 
REMARK    8  A    between atoms: C_10  and  C_12 
REMARK    9  A    between atoms: C_10  and  C_14 
REMARK   10  A    between atoms: C_13  and  C_16 
REMARK   11  A    between atoms: C_13  and  C_17 
REMARK   12  A    between atoms: C_15  and  C_18 
REMARK   13  A    between atoms: C_15  and  C_19 
REMARK   14  A    between atoms: C_20  and  C_21 
ROOT
HETATM    1  O   UNL     1      25.915  12.748 -21.695  1.00  0.00    -0.776 OA
HETATM    2  H   UNL     1      26.774  12.337 -21.520  1.00  0.00     0.167 HD
ENDROOT
BRANCH   1   3
HETATM    3  C   UNL     1      24.791  12.314 -21.090  1.00  0.00     0.139 C 
HETATM    4  O   UNL     1      23.699  12.678 -21.504  1.00  0.00    -0.650 OA
BRANCH   3   5
HETATM    5  C   UNL     1      24.908  11.382 -19.912  1.00  0.00     0.110 C 
BRANCH   5   6
HETATM    6  C   UNL     1      23.881  11.674 -18.808  1.00  0.00     0.014 C 
BRANCH   6   7
HETATM    7  C   UNL     1      24.563  12.239 -17.560  1.00  0.00     0.027 C 
BRANCH   7   8
HETATM    8  C   UNL     1      25.347  11.155 -16.865  1.00  0.00    -0.030 C 
HETATM    9  C   UNL     1      26.190  11.347 -15.831  1.00  0.00    -0.027 C 
BRANCH   9  10
HETATM   10  C   UNL     1      26.478  12.670 -15.168  1.00  0.00     0.053 C 
BRANCH  10  11
HETATM   11  C   UNL     1      27.958  12.974 -15.188  1.00  0.00    -0.027 C 
HETATM   12  C   UNL     1      28.862  12.699 -14.227  1.00  0.00    -0.027 C 
BRANCH  12  13
HETATM   13  C   UNL     1      28.615  12.016 -12.903  1.00  0.00     0.053 C 
BRANCH  13  14
HETATM   14  C   UNL     1      27.912  12.977 -11.981  1.00  0.00    -0.027 C 
HETATM   15  C   UNL     1      26.828  12.696 -11.232  1.00  0.00    -0.027 C 
BRANCH  15  16
HETATM   16  C   UNL     1      26.141  11.357 -11.144  1.00  0.00     0.053 C 
BRANCH  16  17
HETATM   17  C   UNL     1      24.681  11.537 -10.790  1.00  0.00    -0.027 C 
HETATM   18  C   UNL     1      24.172  12.029  -9.642  1.00  0.00    -0.027 C 
BRANCH  18  19
HETATM   19  C   UNL     1      24.948  12.506  -8.443  1.00  0.00     0.053 C 
BRANCH  19  20
HETATM   20  C   UNL     1      24.647  11.614  -7.265  1.00  0.00    -0.027 C 
HETATM   21  C   UNL     1      25.569  11.109  -6.427  1.00  0.00    -0.031 C 
BRANCH  21  22
HETATM   22  C   UNL     1      27.050  11.369  -6.555  1.00  0.00     0.022 C 
HETATM   23  C   UNL     1      27.402  12.795  -6.143  1.00  0.00     0.009 C 
ENDBRANCH  21  22
ENDBRANCH  19  20
ENDBRANCH  18  19
ENDBRANCH  16  17
ENDBRANCH  15  16
ENDBRANCH  13  14
ENDBRANCH  12  13
ENDBRANCH  10  11
ENDBRANCH   9  10
ENDBRANCH   7   8
ENDBRANCH   6   7
ENDBRANCH   5   6
ENDBRANCH   3   5
ENDBRANCH   1   3
TORSDOF 14
ENDMDL
MODEL 10
REMARK VINA RESULT:      -5.2      4.988      9.212
REMARK  14 active torsions:
REMARK  status: ('A' for Active; 'I' for Inactive)
REMARK    1  A    between atoms: O_1  and  C_11 
REMARK    2  A    between atoms: C_3  and  C_4 
REMARK    3  A    between atoms: C_3  and  C_5 
REMARK    4  A    between atoms: C_4  and  C_6 
REMARK    5  A    between atoms: C_5  and  C_11 
REMARK    6  A    between atoms: C_7  and  C_8 
REMARK    7  A    between atoms: C_7  and  C_9 
REMARK    8  A    between atoms: C_10  and  C_12 
REMARK    9  A    between atoms: C_10  and  C_14 
REMARK   10  A    between atoms: C_13  and  C_16 
REMARK   11  A    between atoms: C_13  and  C_17 
REMARK   12  A    between atoms: C_15  and  C_18 
REMARK   13  A    between atoms: C_15  and  C_19 
REMARK   14  A    between atoms: C_20  and  C_21 
ROOT
HETATM    1  O   UNL     1      29.353  15.850 -14.768  1.00  0.00    -0.776 OA
HETATM    2  H   UNL     1      30.212  15.667 -14.362  1.00  0.00     0.167 HD
ENDROOT
BRANCH   1   3
HETATM    3  C   UNL     1      29.235  16.088 -16.090  1.00  0.00     0.139 C 
HETATM    4  O   UNL     1      28.726  17.130 -16.477  1.00  0.00    -0.650 OA
BRANCH   3   5
HETATM    5  C   UNL     1      29.737  15.056 -17.066  1.00  0.00     0.110 C 
BRANCH   5   6
HETATM    6  C   UNL     1      28.906  14.990 -18.356  1.00  0.00     0.014 C 
BRANCH   6   7
HETATM    7  C   UNL     1      27.920  13.820 -18.314  1.00  0.00     0.027 C 
BRANCH   7   8
HETATM    8  C   UNL     1      27.541  13.414 -19.715  1.00  0.00    -0.030 C 
HETATM    9  C   UNL     1      26.742  12.377 -20.036  1.00  0.00    -0.027 C 
BRANCH   9  10
HETATM   10  C   UNL     1      26.064  11.456 -19.052  1.00  0.00     0.053 C 
BRANCH  10  11
HETATM   11  C   UNL     1      24.658  11.923 -18.756  1.00  0.00    -0.027 C 
HETATM   12  C   UNL     1      24.124  12.193 -17.549  1.00  0.00    -0.027 C 
BRANCH  12  13
HETATM   13  C   UNL     1      24.803  12.100 -16.203  1.00  0.00     0.053 C 
BRANCH  13  14
HETATM   14  C   UNL     1      23.785  12.358 -15.123  1.00  0.00    -0.027 C 
HETATM   15  C   UNL     1      23.828  11.867 -13.870  1.00  0.00    -0.027 C 
BRANCH  15  16
HETATM   16  C   UNL     1      24.923  11.002 -13.300  1.00  0.00     0.053 C 
BRANCH  16  17
HETATM   17  C   UNL     1      25.292  11.469 -11.908  1.00  0.00    -0.027 C 
HETATM   18  C   UNL     1      26.201  12.407 -11.575  1.00  0.00    -0.027 C 
BRANCH  18  19
HETATM   19  C   UNL     1      27.065  13.202 -12.518  1.00  0.00     0.053 C 
BRANCH  19  20
HETATM   20  C   UNL     1      28.438  12.581 -12.583  1.00  0.00    -0.027 C 
HETATM   21  C   UNL     1      29.034  12.148 -13.708  1.00  0.00    -0.031 C 
BRANCH  21  22
HETATM   22  C   UNL     1      28.401  12.224 -15.075  1.00  0.00     0.022 C 
HETATM   23  C   UNL     1      28.002  10.842 -15.582  1.00  0.00     0.009 C 
ENDBRANCH  21  22
ENDBRANCH  19  20
ENDBRANCH  18  19
ENDBRANCH  16  17
ENDBRANCH  15  16
ENDBRANCH  13  14
ENDBRANCH  12  13
ENDBRANCH  10  11
ENDBRANCH   9  10
ENDBRANCH   7   8
ENDBRANCH   6   7
ENDBRANCH   5   6
ENDBRANCH   3   5
ENDBRANCH   1   3
TORSDOF 14
ENDMDL
MODEL 11
REMARK VINA RESULT:      -5.2      2.964      6.143
REMARK  14 active torsions:
REMARK  status: ('A' for Active; 'I' for Inactive)
REMARK    1  A    between atoms: O_1  and  C_11 
REMARK    2  A    between atoms: C_3  and  C_4 
REMARK    3  A    between atoms: C_3  and  C_5 
REMARK    4  A    between atoms: C_4  and  C_6 
REMARK    5  A    between atoms: C_5  and  C_11 
REMARK    6  A    between atoms: C_7  and  C_8 
REMARK    7  A    between atoms: C_7  and  C_9 
REMARK    8  A    between atoms: C_10  and  C_12 
REMARK    9  A    between atoms: C_10  and  C_14 
REMARK   10  A    between atoms: C_13  and  C_16 
REMARK   11  A    between atoms: C_13  and  C_17 
REMARK   12  A    between atoms: C_15  and  C_18 
REMARK   13  A    between atoms: C_15  and  C_19 
REMARK   14  A    between atoms: C_20  and  C_21 
ROOT
HETATM    1  O   UNL     1      28.044  11.225  -8.247  1.00  0.00    -0.776 OA
HETATM    2  H   UNL     1      27.664  10.394  -7.927  1.00  0.00     0.167 HD
ENDROOT
BRANCH   1   3
HETATM    3  C   UNL     1      27.265  12.281  -8.558  1.00  0.00     0.139 C 
HETATM    4  O   UNL     1      27.211  13.240  -7.801  1.00  0.00    -0.650 OA
BRANCH   3   5
HETATM    5  C   UNL     1      26.477  12.254  -9.842  1.00  0.00     0.110 C 
BRANCH   5   6
HETATM    6  C   UNL     1      26.904  11.123 -10.789  1.00  0.00     0.014 C 
BRANCH   6   7
HETATM    7  C   UNL     1      25.890  10.943 -11.922  1.00  0.00     0.027 C 
BRANCH   7   8
HETATM    8  C   UNL     1      24.955  12.124 -11.970  1.00  0.00    -0.030 C 
HETATM    9  C   UNL     1      24.083  12.385 -12.964  1.00  0.00    -0.027 C 
BRANCH   9  10
HETATM   10  C   UNL     1      23.867  11.532 -14.188  1.00  0.00     0.053 C 
BRANCH  10  11
HETATM   11  C   UNL     1      24.101  12.328 -15.450  1.00  0.00    -0.027 C 
HETATM   12  C   UNL     1      24.959  12.043 -16.449  1.00  0.00    -0.027 C 
BRANCH  12  13
HETATM   13  C   UNL     1      25.888  10.856 -16.551  1.00  0.00     0.053 C 
BRANCH  13  14
HETATM   14  C   UNL     1      26.919  10.946 -15.457  1.00  0.00    -0.027 C 
HETATM   15  C   UNL     1      28.085  11.616 -15.530  1.00  0.00    -0.027 C 
BRANCH  15  16
HETATM   16  C   UNL     1      28.558  12.435 -16.705  1.00  0.00     0.053 C 
BRANCH  16  17
HETATM   17  C   UNL     1      28.052  13.857 -16.592  1.00  0.00    -0.027 C 
HETATM   18  C   UNL     1      28.281  14.730 -15.589  1.00  0.00    -0.027 C 
BRANCH  18  19
HETATM   19  C   UNL     1      29.090  14.480 -14.343  1.00  0.00     0.053 C 
BRANCH  19  20
HETATM   20  C   UNL     1      28.166  14.097 -13.215  1.00  0.00    -0.027 C 
HETATM   21  C   UNL     1      27.892  14.870 -12.149  1.00  0.00    -0.031 C 
BRANCH  21  22
HETATM   22  C   UNL     1      28.481  16.242 -11.935  1.00  0.00     0.022 C 
HETATM   23  C   UNL     1      29.681  16.193 -10.996  1.00  0.00     0.009 C 
ENDBRANCH  21  22
ENDBRANCH  19  20
ENDBRANCH  18  19
ENDBRANCH  16  17
ENDBRANCH  15  16
ENDBRANCH  13  14
ENDBRANCH  12  13
ENDBRANCH  10  11
ENDBRANCH   9  10
ENDBRANCH   7   8
ENDBRANCH   6   7
ENDBRANCH   5   6
ENDBRANCH   3   5
ENDBRANCH   1   3
TORSDOF 14
ENDMDL
MODEL 12
REMARK VINA RESULT:      -5.2      6.042     10.208
REMARK  14 active torsions:
REMARK  status: ('A' for Active; 'I' for Inactive)
REMARK    1  A    between atoms: O_1  and  C_11 
REMARK    2  A    between atoms: C_3  and  C_4 
REMARK    3  A    between atoms: C_3  and  C_5 
REMARK    4  A    between atoms: C_4  and  C_6 
REMARK    5  A    between atoms: C_5  and  C_11 
REMARK    6  A    between atoms: C_7  and  C_8 
REMARK    7  A    between atoms: C_7  and  C_9 
REMARK    8  A    between atoms: C_10  and  C_12 
REMARK    9  A    between atoms: C_10  and  C_14 
REMARK   10  A    between atoms: C_13  and  C_16 
REMARK   11  A    between atoms: C_13  and  C_17 
REMARK   12  A    between atoms: C_15  and  C_18 
REMARK   13  A    between atoms: C_15  and  C_19 
REMARK   14  A    between atoms: C_20  and  C_21 
ROOT
HETATM    1  O   UNL     1      29.555  17.974 -17.474  1.00  0.00    -0.776 OA
HETATM    2  H   UNL     1      29.290  18.667 -18.096  1.00  0.00     0.167 HD
ENDROOT
BRANCH   1   3
HETATM    3  C   UNL     1      29.647  16.684 -17.856  1.00  0.00     0.139 C 
HETATM    4  O   UNL     1      30.573  16.327 -18.571  1.00  0.00    -0.650 OA
BRANCH   3   5
HETATM    5  C   UNL     1      28.601  15.706 -17.389  1.00  0.00     0.110 C 
BRANCH   5   6
HETATM    6  C   UNL     1      29.100  14.254 -17.363  1.00  0.00     0.014 C 
BRANCH   6   7
HETATM    7  C   UNL     1      28.189  13.346 -18.193  1.00  0.00     0.027 C 
BRANCH   7   8
HETATM    8  C   UNL     1      28.074  13.875 -19.599  1.00  0.00    -0.030 C 
HETATM    9  C   UNL     1      27.406  13.275 -20.604  1.00  0.00    -0.027 C 
BRANCH   9  10
HETATM   10  C   UNL     1      26.634  11.984 -20.496  1.00  0.00     0.053 C 
BRANCH  10  11
HETATM   11  C   UNL     1      25.173  12.200 -20.814  1.00  0.00    -0.027 C 
HETATM   12  C   UNL     1      24.115  11.915 -20.029  1.00  0.00    -0.027 C 
BRANCH  12  13
HETATM   13  C   UNL     1      24.135  11.319 -18.641  1.00  0.00     0.053 C 
BRANCH  13  14
HETATM   14  C   UNL     1      24.350  12.423 -17.638  1.00  0.00    -0.027 C 
HETATM   15  C   UNL     1      24.939  12.286 -16.435  1.00  0.00    -0.027 C 
BRANCH  15  16
HETATM   16  C   UNL     1      25.529  11.013 -15.882  1.00  0.00     0.053 C 
BRANCH  16  17
HETATM   17  C   UNL     1      26.980  10.885 -16.293  1.00  0.00    -0.027 C 
HETATM   18  C   UNL     1      28.068  11.023 -15.507  1.00  0.00    -0.027 C 
BRANCH  18  19
HETATM   19  C   UNL     1      28.083  11.346 -14.036  1.00  0.00     0.053 C 
BRANCH  19  20
HETATM   20  C   UNL     1      27.705  12.792 -13.837  1.00  0.00    -0.027 C 
HETATM   21  C   UNL     1      26.686  13.222 -13.071  1.00  0.00    -0.031 C 
BRANCH  21  22
HETATM   22  C   UNL     1      25.772  12.304 -12.299  1.00  0.00     0.022 C 
HETATM   23  C   UNL     1      24.325  12.443 -12.759  1.00  0.00     0.009 C 
ENDBRANCH  21  22
ENDBRANCH  19  20
ENDBRANCH  18  19
ENDBRANCH  16  17
ENDBRANCH  15  16
ENDBRANCH  13  14
ENDBRANCH  12  13
ENDBRANCH  10  11
ENDBRANCH   9  10
ENDBRANCH   7   8
ENDBRANCH   6   7
ENDBRANCH   5   6
ENDBRANCH   3   5
ENDBRANCH   1   3
TORSDOF 14
ENDMDL
MODEL 13
REMARK VINA RESULT:      -5.2     36.446     38.604
REMARK  14 active torsions:
REMARK  status: ('A' for Active; 'I' for Inactive)
REMARK    1  A    between atoms: O_1  and  C_11 
REMARK    2  A    between atoms: C_3  and  C_4 
REMARK    3  A    between atoms: C_3  and  C_5 
REMARK    4  A    between atoms: C_4  and  C_6 
REMARK    5  A    between atoms: C_5  and  C_11 
REMARK    6  A    between atoms: C_7  and  C_8 
REMARK    7  A    between atoms: C_7  and  C_9 
REMARK    8  A    between atoms: C_10  and  C_12 
REMARK    9  A    between atoms: C_10  and  C_14 
REMARK   10  A    between atoms: C_13  and  C_16 
REMARK   11  A    between atoms: C_13  and  C_17 
REMARK   12  A    between atoms: C_15  and  C_18 
REMARK   13  A    between atoms: C_15  and  C_19 
REMARK   14  A    between atoms: C_20  and  C_21 
ROOT
HETATM    1  O   UNL     1      47.382 -17.749 -18.547  1.00  0.00    -0.776 OA
HETATM    2  H   UNL     1      46.512 -17.442 -18.255  1.00  0.00     0.167 HD
ENDROOT
BRANCH   1   3
HETATM    3  C   UNL     1      48.344 -18.083 -17.662  1.00  0.00     0.139 C 
HETATM    4  O   UNL     1      49.477 -17.644 -17.802  1.00  0.00    -0.650 OA
BRANCH   3   5
HETATM    5  C   UNL     1      47.995 -18.994 -16.514  1.00  0.00     0.110 C 
BRANCH   5   6
HETATM    6  C   UNL     1      47.959 -18.270 -15.160  1.00  0.00     0.014 C 
BRANCH   6   7
HETATM    7  C   UNL     1      49.163 -18.657 -14.297  1.00  0.00     0.027 C 
BRANCH   7   8
HETATM    8  C   UNL     1      48.859 -19.911 -13.519  1.00  0.00    -0.030 C 
HETATM    9  C   UNL     1      48.509 -19.954 -12.219  1.00  0.00    -0.027 C 
BRANCH   9  10
HETATM   10  C   UNL     1      48.332 -18.757 -11.318  1.00  0.00     0.053 C 
BRANCH  10  11
HETATM   11  C   UNL     1      49.319 -18.790 -10.175  1.00  0.00    -0.027 C 
HETATM   12  C   UNL     1      49.057 -18.619  -8.864  1.00  0.00    -0.027 C 
BRANCH  12  13
HETATM   13  C   UNL     1      47.714 -18.360  -8.222  1.00  0.00     0.053 C 
BRANCH  13  14
HETATM   14  C   UNL     1      47.200 -19.645  -7.628  1.00  0.00    -0.027 C 
HETATM   15  C   UNL     1      46.142 -19.761  -6.803  1.00  0.00    -0.027 C 
BRANCH  15  16
HETATM   16  C   UNL     1      45.249 -18.632  -6.352  1.00  0.00     0.053 C 
BRANCH  16  17
HETATM   17  C   UNL     1      45.134 -18.624  -4.843  1.00  0.00    -0.027 C 
HETATM   18  C   UNL     1      45.940 -17.994  -3.964  1.00  0.00    -0.027 C 
BRANCH  18  19
HETATM   19  C   UNL     1      47.149 -17.157  -4.289  1.00  0.00     0.053 C 
BRANCH  19  20
HETATM   20  C   UNL     1      48.239 -17.442  -3.288  1.00  0.00    -0.027 C 
HETATM   21  C   UNL     1      49.113 -18.461  -3.371  1.00  0.00    -0.031 C 
BRANCH  21  22
HETATM   22  C   UNL     1      49.120 -19.469  -4.493  1.00  0.00     0.022 C 
HETATM   23  C   UNL     1      48.577 -20.818  -4.032  1.00  0.00     0.009 C 
ENDBRANCH  21  22
ENDBRANCH  19  20
ENDBRANCH  18  19
ENDBRANCH  16  17
ENDBRANCH  15  16
ENDBRANCH  13  14
ENDBRANCH  12  13
ENDBRANCH  10  11
ENDBRANCH   9  10
ENDBRANCH   7   8
ENDBRANCH   6   7
ENDBRANCH   5   6
ENDBRANCH   3   5
ENDBRANCH   1   3
TORSDOF 14
ENDMDL
MODEL 14
REMARK VINA RESULT:      -5.2     34.340     37.230
REMARK  14 active torsions:
REMARK  status: ('A' for Active; 'I' for Inactive)
REMARK    1  A    between atoms: O_1  and  C_11 
REMARK    2  A    between atoms: C_3  and  C_4 
REMARK    3  A    between atoms: C_3  and  C_5 
REMARK    4  A    between atoms: C_4  and  C_6 
REMARK    5  A    between atoms: C_5  and  C_11 
REMARK    6  A    between atoms: C_7  and  C_8 
REMARK    7  A    between atoms: C_7  and  C_9 
REMARK    8  A    between atoms: C_10  and  C_12 
REMARK    9  A    between atoms: C_10  and  C_14 
REMARK   10  A    between atoms: C_13  and  C_16 
REMARK   11  A    between atoms: C_13  and  C_17 
REMARK   12  A    between atoms: C_15  and  C_18 
REMARK   13  A    between atoms: C_15  and  C_19 
REMARK   14  A    between atoms: C_20  and  C_21 
ROOT
HETATM    1  O   UNL     1      49.125 -16.802  -8.099  1.00  0.00    -0.776 OA
HETATM    2  H   UNL     1      50.018 -16.512  -7.863  1.00  0.00     0.167 HD
ENDROOT
BRANCH   1   3
HETATM    3  C   UNL     1      48.682 -18.039  -7.795  1.00  0.00     0.139 C 
HETATM    4  O   UNL     1      48.060 -18.223  -6.759  1.00  0.00    -0.650 OA
BRANCH   3   5
HETATM    5  C   UNL     1      48.968 -19.172  -8.746  1.00  0.00     0.110 C 
BRANCH   5   6
HETATM    6  C   UNL     1      49.273 -18.697 -10.174  1.00  0.00     0.014 C 
BRANCH   6   7
HETATM    7  C   UNL     1      48.051 -18.864 -11.081  1.00  0.00     0.027 C 
BRANCH   7   8
HETATM    8  C   UNL     1      48.206 -20.096 -11.935  1.00  0.00    -0.030 C 
HETATM    9  C   UNL     1      48.741 -20.122 -13.172  1.00  0.00    -0.027 C 
BRANCH   9  10
HETATM   10  C   UNL     1      49.304 -18.934 -13.909  1.00  0.00     0.053 C 
BRANCH  10  11
HETATM   11  C   UNL     1      48.516 -18.655 -15.167  1.00  0.00    -0.027 C 
HETATM   12  C   UNL     1      47.325 -18.032 -15.264  1.00  0.00    -0.027 C 
BRANCH  12  13
HETATM   13  C   UNL     1      46.496 -17.456 -14.140  1.00  0.00     0.053 C 
BRANCH  13  14
HETATM   14  C   UNL     1      45.043 -17.761 -14.398  1.00  0.00    -0.027 C 
HETATM   15  C   UNL     1      44.348 -18.783 -13.862  1.00  0.00    -0.027 C 
BRANCH  15  16
HETATM   16  C   UNL     1      44.881 -19.787 -12.872  1.00  0.00     0.053 C 
BRANCH  16  17
HETATM   17  C   UNL     1      43.776 -20.252 -11.949  1.00  0.00    -0.027 C 
HETATM   18  C   UNL     1      43.901 -20.693 -10.680  1.00  0.00    -0.027 C 
BRANCH  18  19
HETATM   19  C   UNL     1      45.178 -20.828  -9.894  1.00  0.00     0.053 C 
BRANCH  19  20
HETATM   20  C   UNL     1      44.972 -20.275  -8.506  1.00  0.00    -0.027 C 
HETATM   21  C   UNL     1      44.960 -18.967  -8.193  1.00  0.00    -0.031 C 
BRANCH  21  22
HETATM   22  C   UNL     1      45.154 -17.862  -9.200  1.00  0.00     0.022 C 
HETATM   23  C   UNL     1      43.832 -17.184  -9.545  1.00  0.00     0.009 C 
ENDBRANCH  21  22
ENDBRANCH  19  20
ENDBRANCH  18  19
ENDBRANCH  16  17
ENDBRANCH  15  16
ENDBRANCH  13  14
ENDBRANCH  12  13
ENDBRANCH  10  11
ENDBRANCH   9  10
ENDBRANCH   7   8
ENDBRANCH   6   7
ENDBRANCH   5   6
ENDBRANCH   3   5
ENDBRANCH   1   3
TORSDOF 14
ENDMDL
MODEL 15
REMARK VINA RESULT:      -5.2     35.542     37.606
REMARK  14 active torsions:
REMARK  status: ('A' for Active; 'I' for Inactive)
REMARK    1  A    between atoms: O_1  and  C_11 
REMARK    2  A    between atoms: C_3  and  C_4 
REMARK    3  A    between atoms: C_3  and  C_5 
REMARK    4  A    between atoms: C_4  and  C_6 
REMARK    5  A    between atoms: C_5  and  C_11 
REMARK    6  A    between atoms: C_7  and  C_8 
REMARK    7  A    between atoms: C_7  and  C_9 
REMARK    8  A    between atoms: C_10  and  C_12 
REMARK    9  A    between atoms: C_10  and  C_14 
REMARK   10  A    between atoms: C_13  and  C_16 
REMARK   11  A    between atoms: C_13  and  C_17 
REMARK   12  A    between atoms: C_15  and  C_18 
REMARK   13  A    between atoms: C_15  and  C_19 
REMARK   14  A    between atoms: C_20  and  C_21 
ROOT
HETATM    1  O   UNL     1      48.743 -16.934  -7.510  1.00  0.00    -0.776 OA
HETATM    2  H   UNL     1      48.573 -16.296  -8.218  1.00  0.00     0.167 HD
ENDROOT
BRANCH   1   3
HETATM    3  C   UNL     1      48.936 -18.243  -7.774  1.00  0.00     0.139 C 
HETATM    4  O   UNL     1      48.768 -19.071  -6.891  1.00  0.00    -0.650 OA
BRANCH   3   5
HETATM    5  C   UNL     1      49.358 -18.654  -9.160  1.00  0.00     0.110 C 
BRANCH   5   6
HETATM    6  C   UNL     1      48.217 -18.579 -10.185  1.00  0.00     0.014 C 
BRANCH   6   7
HETATM    7  C   UNL     1      48.765 -18.470 -11.611  1.00  0.00     0.027 C 
BRANCH   7   8
HETATM    8  C   UNL     1      48.364 -19.682 -12.412  1.00  0.00    -0.030 C 
HETATM    9  C   UNL     1      48.615 -19.865 -13.723  1.00  0.00    -0.027 C 
BRANCH   9  10
HETATM   10  C   UNL     1      49.364 -18.907 -14.615  1.00  0.00     0.053 C 
BRANCH  10  11
HETATM   11  C   UNL     1      48.408 -18.074 -15.436  1.00  0.00    -0.027 C 
HETATM   12  C   UNL     1      48.119 -18.214 -16.745  1.00  0.00    -0.027 C 
BRANCH  12  13
HETATM   13  C   UNL     1      48.675 -19.240 -17.704  1.00  0.00     0.053 C 
BRANCH  13  14
HETATM   14  C   UNL     1      49.361 -18.527 -18.840  1.00  0.00    -0.027 C 
HETATM   15  C   UNL     1      49.152 -18.756 -20.150  1.00  0.00    -0.027 C 
BRANCH  15  16
HETATM   16  C   UNL     1      48.164 -19.739 -20.727  1.00  0.00     0.053 C 
BRANCH  16  17
HETATM   17  C   UNL     1      47.003 -19.005 -21.363  1.00  0.00    -0.027 C 
HETATM   18  C   UNL     1      45.804 -18.735 -20.807  1.00  0.00    -0.027 C 
BRANCH  18  19
HETATM   19  C   UNL     1      45.346 -19.111 -19.423  1.00  0.00     0.053 C 
BRANCH  19  20
HETATM   20  C   UNL     1      44.489 -18.004 -18.862  1.00  0.00    -0.027 C 
HETATM   21  C   UNL     1      43.936 -18.007 -17.636  1.00  0.00    -0.031 C 
BRANCH  21  22
HETATM   22  C   UNL     1      44.098 -19.132 -16.645  1.00  0.00     0.022 C 
HETATM   23  C   UNL     1      44.785 -18.656 -15.370  1.00  0.00     0.009 C 
ENDBRANCH  21  22
ENDBRANCH  19  20
ENDBRANCH  18  19
ENDBRANCH  16  17
ENDBRANCH  15  16
ENDBRANCH  13  14
ENDBRANCH  12  13
ENDBRANCH  10  11
ENDBRANCH   9  10
ENDBRANCH   7   8
ENDBRANCH   6   7
ENDBRANCH   5   6
ENDBRANCH   3   5
ENDBRANCH   1   3
TORSDOF 14
ENDMDL
MODEL 16
REMARK VINA RESULT:      -5.2      3.731      5.441
REMARK  14 active torsions:
REMARK  status: ('A' for Active; 'I' for Inactive)
REMARK    1  A    between atoms: O_1  and  C_11 
REMARK    2  A    between atoms: C_3  and  C_4 
REMARK    3  A    between atoms: C_3  and  C_5 
REMARK    4  A    between atoms: C_4  and  C_6 
REMARK    5  A    between atoms: C_5  and  C_11 
REMARK    6  A    between atoms: C_7  and  C_8 
REMARK    7  A    between atoms: C_7  and  C_9 
REMARK    8  A    between atoms: C_10  and  C_12 
REMARK    9  A    between atoms: C_10  and  C_14 
REMARK   10  A    between atoms: C_13  and  C_16 
REMARK   11  A    between atoms: C_13  and  C_17 
REMARK   12  A    between atoms: C_15  and  C_18 
REMARK   13  A    between atoms: C_15  and  C_19 
REMARK   14  A    between atoms: C_20  and  C_21 
ROOT
HETATM    1  O   UNL     1      29.588  16.896 -10.969  1.00  0.00    -0.776 OA
HETATM    2  H   UNL     1      29.202  17.784 -10.975  1.00  0.00     0.167 HD
ENDROOT
BRANCH   1   3
HETATM    3  C   UNL     1      29.743  16.204  -9.823  1.00  0.00     0.139 C 
HETATM    4  O   UNL     1      29.630  16.776  -8.748  1.00  0.00    -0.650 OA
BRANCH   3   5
HETATM    5  C   UNL     1      30.053  14.731  -9.894  1.00  0.00     0.110 C 
BRANCH   5   6
HETATM    6  C   UNL     1      29.139  13.878  -9.002  1.00  0.00     0.014 C 
BRANCH   6   7
HETATM    7  C   UNL     1      27.821  13.558  -9.714  1.00  0.00     0.027 C 
BRANCH   7   8
HETATM    8  C   UNL     1      28.074  13.301 -11.177  1.00  0.00    -0.030 C 
HETATM    9  C   UNL     1      27.522  12.307 -11.900  1.00  0.00    -0.027 C 
BRANCH   9  10
HETATM   10  C   UNL     1      26.534  11.291 -11.382  1.00  0.00     0.053 C 
BRANCH  10  11
HETATM   11  C   UNL     1      25.129  11.845 -11.403  1.00  0.00    -0.027 C 
HETATM   12  C   UNL     1      24.260  11.832 -12.433  1.00  0.00    -0.027 C 
BRANCH  12  13
HETATM   13  C   UNL     1      24.480  11.255 -13.812  1.00  0.00     0.053 C 
BRANCH  13  14
HETATM   14  C   UNL     1      23.911  12.203 -14.835  1.00  0.00    -0.027 C 
HETATM   15  C   UNL     1      24.288  12.283 -16.125  1.00  0.00    -0.027 C 
BRANCH  15  16
HETATM   16  C   UNL     1      25.318  11.412 -16.799  1.00  0.00     0.053 C 
BRANCH  16  17
HETATM   17  C   UNL     1      26.123  12.222 -17.792  1.00  0.00    -0.027 C 
HETATM   18  C   UNL     1      25.937  12.299 -19.126  1.00  0.00    -0.027 C 
BRANCH  18  19
HETATM   19  C   UNL     1      24.884  11.586 -19.933  1.00  0.00     0.053 C 
BRANCH  19  20
HETATM   20  C   UNL     1      25.535  10.890 -21.101  1.00  0.00    -0.027 C 
HETATM   21  C   UNL     1      25.358  11.225 -22.392  1.00  0.00    -0.031 C 
BRANCH  21  22
HETATM   22  C   UNL     1      24.472  12.356 -22.850  1.00  0.00     0.022 C 
HETATM   23  C   UNL     1      23.822  12.045 -24.194  1.00  0.00     0.009 C 
ENDBRANCH  21  22
ENDBRANCH  19  20
ENDBRANCH  18  19
ENDBRANCH  16  17
ENDBRANCH  15  16
ENDBRANCH  13  14
ENDBRANCH  12  13
ENDBRANCH  10  11
ENDBRANCH   9  10
ENDBRANCH   7   8
ENDBRANCH   6   7
ENDBRANCH   5   6
ENDBRANCH   3   5
ENDBRANCH   1   3
TORSDOF 14
ENDMDL
MODEL 17
REMARK VINA RESULT:      -5.2      7.247      8.983
REMARK  14 active torsions:
REMARK  status: ('A' for Active; 'I' for Inactive)
REMARK    1  A    between atoms: O_1  and  C_11 
REMARK    2  A    between atoms: C_3  and  C_4 
REMARK    3  A    between atoms: C_3  and  C_5 
REMARK    4  A    between atoms: C_4  and  C_6 
REMARK    5  A    between atoms: C_5  and  C_11 
REMARK    6  A    between atoms: C_7  and  C_8 
REMARK    7  A    between atoms: C_7  and  C_9 
REMARK    8  A    between atoms: C_10  and  C_12 
REMARK    9  A    between atoms: C_10  and  C_14 
REMARK   10  A    between atoms: C_13  and  C_16 
REMARK   11  A    between atoms: C_13  and  C_17 
REMARK   12  A    between atoms: C_15  and  C_18 
REMARK   13  A    between atoms: C_15  and  C_19 
REMARK   14  A    between atoms: C_20  and  C_21 
ROOT
HETATM    1  O   UNL     1      31.381   5.295  -7.576  1.00  0.00    -0.776 OA
HETATM    2  H   UNL     1      30.448   5.041  -7.614  1.00  0.00     0.167 HD
ENDROOT
BRANCH   1   3
HETATM    3  C   UNL     1      31.769   6.574  -7.752  1.00  0.00     0.139 C 
HETATM    4  O   UNL     1      31.755   7.349  -6.807  1.00  0.00    -0.650 OA
BRANCH   3   5
HETATM    5  C   UNL     1      32.217   7.020  -9.120  1.00  0.00     0.110 C 
BRANCH   5   6
HETATM    6  C   UNL     1      33.065   5.968  -9.850  1.00  0.00     0.014 C 
BRANCH   6   7
HETATM    7  C   UNL     1      32.657   5.858 -11.321  1.00  0.00     0.027 C 
BRANCH   7   8
HETATM    8  C   UNL     1      31.158   5.956 -11.450  1.00  0.00    -0.030 C 
HETATM    9  C   UNL     1      30.502   6.536 -12.474  1.00  0.00    -0.027 C 
BRANCH   9  10
HETATM   10  C   UNL     1      31.145   7.166 -13.683  1.00  0.00     0.053 C 
BRANCH  10  11
HETATM   11  C   UNL     1      30.778   8.628 -13.790  1.00  0.00    -0.027 C 
HETATM   12  C   UNL     1      31.602   9.659 -14.064  1.00  0.00    -0.027 C 
BRANCH  12  13
HETATM   13  C   UNL     1      33.086   9.602 -14.337  1.00  0.00     0.053 C 
BRANCH  13  14
HETATM   14  C   UNL     1      33.792   9.114 -13.098  1.00  0.00    -0.027 C 
HETATM   15  C   UNL     1      34.751   8.170 -13.062  1.00  0.00    -0.027 C 
BRANCH  15  16
HETATM   16  C   UNL     1      35.329   7.454 -14.257  1.00  0.00     0.053 C 
BRANCH  16  17
HETATM   17  C   UNL     1      34.436   6.301 -14.662  1.00  0.00    -0.027 C 
HETATM   18  C   UNL     1      33.956   6.031 -15.893  1.00  0.00    -0.027 C 
BRANCH  18  19
HETATM   19  C   UNL     1      34.197   6.826 -17.149  1.00  0.00     0.053 C 
BRANCH  19  20
HETATM   20  C   UNL     1      33.184   7.939 -17.240  1.00  0.00    -0.027 C 
HETATM   21  C   UNL     1      31.918   7.793 -17.670  1.00  0.00    -0.031 C 
BRANCH  21  22
HETATM   22  C   UNL     1      31.334   6.480 -18.127  1.00  0.00     0.022 C 
HETATM   23  C   UNL     1      30.356   5.918 -17.100  1.00  0.00     0.009 C 
ENDBRANCH  21  22
ENDBRANCH  19  20
ENDBRANCH  18  19
ENDBRANCH  16  17
ENDBRANCH  15  16
ENDBRANCH  13  14
ENDBRANCH  12  13
ENDBRANCH  10  11
ENDBRANCH   9  10
ENDBRANCH   7   8
ENDBRANCH   6   7
ENDBRANCH   5   6
ENDBRANCH   3   5
ENDBRANCH   1   3
TORSDOF 14
ENDMDL
MODEL 18
REMARK VINA RESULT:      -5.2      6.076     10.258
REMARK  14 active torsions:
REMARK  status: ('A' for Active; 'I' for Inactive)
REMARK    1  A    between atoms: O_1  and  C_11 
REMARK    2  A    between atoms: C_3  and  C_4 
REMARK    3  A    between atoms: C_3  and  C_5 
REMARK    4  A    between atoms: C_4  and  C_6 
REMARK    5  A    between atoms: C_5  and  C_11 
REMARK    6  A    between atoms: C_7  and  C_8 
REMARK    7  A    between atoms: C_7  and  C_9 
REMARK    8  A    between atoms: C_10  and  C_12 
REMARK    9  A    between atoms: C_10  and  C_14 
REMARK   10  A    between atoms: C_13  and  C_16 
REMARK   11  A    between atoms: C_13  and  C_17 
REMARK   12  A    between atoms: C_15  and  C_18 
REMARK   13  A    between atoms: C_15  and  C_19 
REMARK   14  A    between atoms: C_20  and  C_21 
ROOT
HETATM    1  O   UNL     1      30.540  15.694 -19.584  1.00  0.00    -0.776 OA
HETATM    2  H   UNL     1      30.128  15.473 -20.431  1.00  0.00     0.167 HD
ENDROOT
BRANCH   1   3
HETATM    3  C   UNL     1      30.898  16.960 -19.285  1.00  0.00     0.139 C 
HETATM    4  O   UNL     1      31.577  17.601 -20.074  1.00  0.00    -0.650 OA
BRANCH   3   5
HETATM    5  C   UNL     1      30.450  17.556 -17.976  1.00  0.00     0.110 C 
BRANCH   5   6
HETATM    6  C   UNL     1      30.319  16.516 -16.853  1.00  0.00     0.014 C 
BRANCH   6   7
HETATM    7  C   UNL     1      28.868  16.402 -16.377  1.00  0.00     0.027 C 
BRANCH   7   8
HETATM    8  C   UNL     1      28.599  15.009 -15.868  1.00  0.00    -0.030 C 
HETATM    9  C   UNL     1      28.073  14.004 -16.595  1.00  0.00    -0.027 C 
BRANCH   9  10
HETATM   10  C   UNL     1      27.685  14.084 -18.050  1.00  0.00     0.053 C 
BRANCH  10  11
HETATM   11  C   UNL     1      28.206  12.889 -18.814  1.00  0.00    -0.027 C 
HETATM   12  C   UNL     1      27.667  12.323 -19.912  1.00  0.00    -0.027 C 
BRANCH  12  13
HETATM   13  C   UNL     1      26.418  12.750 -20.647  1.00  0.00     0.053 C 
BRANCH  13  14
HETATM   14  C   UNL     1      25.497  11.565 -20.775  1.00  0.00    -0.027 C 
HETATM   15  C   UNL     1      24.632  11.137 -19.836  1.00  0.00    -0.027 C 
BRANCH  15  16
HETATM   16  C   UNL     1      24.394  11.787 -18.496  1.00  0.00     0.053 C 
BRANCH  16  17
HETATM   17  C   UNL     1      25.218  11.104 -17.426  1.00  0.00    -0.027 C 
HETATM   18  C   UNL     1      25.198  11.346 -16.099  1.00  0.00    -0.027 C 
BRANCH  18  19
HETATM   19  C   UNL     1      24.350  12.362 -15.381  1.00  0.00     0.053 C 
BRANCH  19  20
HETATM   20  C   UNL     1      23.795  11.749 -14.120  1.00  0.00    -0.027 C 
HETATM   21  C   UNL     1      24.382  11.811 -12.912  1.00  0.00    -0.031 C 
BRANCH  21  22
HETATM   22  C   UNL     1      25.693  12.509 -12.651  1.00  0.00     0.022 C 
HETATM   23  C   UNL     1      26.747  11.539 -12.130  1.00  0.00     0.009 C 
ENDBRANCH  21  22
ENDBRANCH  19  20
ENDBRANCH  18  19
ENDBRANCH  16  17
ENDBRANCH  15  16
ENDBRANCH  13  14
ENDBRANCH  12  13
ENDBRANCH  10  11
ENDBRANCH   9  10
ENDBRANCH   7   8
ENDBRANCH   6   7
ENDBRANCH   5   6
ENDBRANCH   3   5
ENDBRANCH   1   3
TORSDOF 14
ENDMDL
MODEL 19
REMARK VINA RESULT:      -5.1      9.546     12.665
REMARK  14 active torsions:
REMARK  status: ('A' for Active; 'I' for Inactive)
REMARK    1  A    between atoms: O_1  and  C_11 
REMARK    2  A    between atoms: C_3  and  C_4 
REMARK    3  A    between atoms: C_3  and  C_5 
REMARK    4  A    between atoms: C_4  and  C_6 
REMARK    5  A    between atoms: C_5  and  C_11 
REMARK    6  A    between atoms: C_7  and  C_8 
REMARK    7  A    between atoms: C_7  and  C_9 
REMARK    8  A    between atoms: C_10  and  C_12 
REMARK    9  A    between atoms: C_10  and  C_14 
REMARK   10  A    between atoms: C_13  and  C_16 
REMARK   11  A    between atoms: C_13  and  C_17 
REMARK   12  A    between atoms: C_15  and  C_18 
REMARK   13  A    between atoms: C_15  and  C_19 
REMARK   14  A    between atoms: C_20  and  C_21 
ROOT
HETATM    1  O   UNL     1      34.248   8.969 -21.601  1.00  0.00    -0.776 OA
HETATM    2  H   UNL     1      33.768   9.764 -21.329  1.00  0.00     0.167 HD
ENDROOT
BRANCH   1   3
HETATM    3  C   UNL     1      33.600   7.827 -21.909  1.00  0.00     0.139 C 
HETATM    4  O   UNL     1      32.817   7.806 -22.848  1.00  0.00    -0.650 OA
BRANCH   3   5
HETATM    5  C   UNL     1      33.859   6.594 -21.082  1.00  0.00     0.110 C 
BRANCH   5   6
HETATM    6  C   UNL     1      35.059   6.744 -20.135  1.00  0.00     0.014 C 
BRANCH   6   7
HETATM    7  C   UNL     1      34.608   6.729 -18.672  1.00  0.00     0.027 C 
BRANCH   7   8
HETATM    8  C   UNL     1      34.925   8.050 -18.020  1.00  0.00    -0.030 C 
HETATM    9  C   UNL     1      35.202   8.226 -16.713  1.00  0.00    -0.027 C 
BRANCH   9  10
HETATM   10  C   UNL     1      35.271   7.133 -15.676  1.00  0.00     0.053 C 
BRANCH  10  11
HETATM   11  C   UNL     1      35.844   7.654 -14.379  1.00  0.00    -0.027 C 
HETATM   12  C   UNL     1      35.162   8.056 -13.288  1.00  0.00    -0.027 C 
BRANCH  12  13
HETATM   13  C   UNL     1      33.664   8.076 -13.098  1.00  0.00     0.053 C 
BRANCH  13  14
HETATM   14  C   UNL     1      33.220   6.737 -12.569  1.00  0.00    -0.027 C 
HETATM   15  C   UNL     1      32.263   5.958 -13.107  1.00  0.00    -0.027 C 
BRANCH  15  16
HETATM   16  C   UNL     1      31.484   6.260 -14.363  1.00  0.00     0.053 C 
BRANCH  16  17
HETATM   17  C   UNL     1      32.195   5.691 -15.572  1.00  0.00    -0.027 C 
HETATM   18  C   UNL     1      31.791   5.742 -16.858  1.00  0.00    -0.027 C 
BRANCH  18  19
HETATM   19  C   UNL     1      30.529   6.376 -17.382  1.00  0.00     0.053 C 
BRANCH  19  20
HETATM   20  C   UNL     1      30.886   7.490 -18.333  1.00  0.00    -0.027 C 
HETATM   21  C   UNL     1      31.262   8.727 -17.961  1.00  0.00    -0.031 C 
BRANCH  21  22
HETATM   22  C   UNL     1      31.376   9.173 -16.525  1.00  0.00     0.022 C 
HETATM   23  C   UNL     1      30.008   9.482 -15.927  1.00  0.00     0.009 C 
ENDBRANCH  21  22
ENDBRANCH  19  20
ENDBRANCH  18  19
ENDBRANCH  16  17
ENDBRANCH  15  16
ENDBRANCH  13  14
ENDBRANCH  12  13
ENDBRANCH  10  11
ENDBRANCH   9  10
ENDBRANCH   7   8
ENDBRANCH   6   7
ENDBRANCH   5   6
ENDBRANCH   3   5
ENDBRANCH   1   3
TORSDOF 14
ENDMDL
MODEL 20
REMARK VINA RESULT:      -5.1      6.201      9.220
REMARK  14 active torsions:
REMARK  status: ('A' for Active; 'I' for Inactive)
REMARK    1  A    between atoms: O_1  and  C_11 
REMARK    2  A    between atoms: C_3  and  C_4 
REMARK    3  A    between atoms: C_3  and  C_5 
REMARK    4  A    between atoms: C_4  and  C_6 
REMARK    5  A    between atoms: C_5  and  C_11 
REMARK    6  A    between atoms: C_7  and  C_8 
REMARK    7  A    between atoms: C_7  and  C_9 
REMARK    8  A    between atoms: C_10  and  C_12 
REMARK    9  A    between atoms: C_10  and  C_14 
REMARK   10  A    between atoms: C_13  and  C_16 
REMARK   11  A    between atoms: C_13  and  C_17 
REMARK   12  A    between atoms: C_15  and  C_18 
REMARK   13  A    between atoms: C_15  and  C_19 
REMARK   14  A    between atoms: C_20  and  C_21 
ROOT
HETATM    1  O   UNL     1      30.665  16.724 -12.448  1.00  0.00    -0.776 OA
HETATM    2  H   UNL     1      30.436  16.226 -11.650  1.00  0.00     0.167 HD
ENDROOT
BRANCH   1   3
HETATM    3  C   UNL     1      29.716  17.195 -13.282  1.00  0.00     0.139 C 
HETATM    4  O   UNL     1      29.233  18.301 -13.089  1.00  0.00    -0.650 OA
BRANCH   3   5
HETATM    5  C   UNL     1      29.270  16.339 -14.439  1.00  0.00     0.110 C 
BRANCH   5   6
HETATM    6  C   UNL     1      29.440  17.030 -15.800  1.00  0.00     0.014 C 
BRANCH   6   7
HETATM    7  C   UNL     1      30.013  16.063 -16.839  1.00  0.00     0.027 C 
BRANCH   7   8
HETATM    8  C   UNL     1      29.744  14.639 -16.423  1.00  0.00    -0.030 C 
HETATM    9  C   UNL     1      28.834  13.823 -16.990  1.00  0.00    -0.027 C 
BRANCH   9  10
HETATM   10  C   UNL     1      27.944  14.176 -18.155  1.00  0.00     0.053 C 
BRANCH  10  11
HETATM   11  C   UNL     1      28.616  13.847 -19.467  1.00  0.00    -0.027 C 
HETATM   12  C   UNL     1      28.608  12.666 -20.117  1.00  0.00    -0.027 C 
BRANCH  12  13
HETATM   13  C   UNL     1      27.920  11.390 -19.693  1.00  0.00     0.053 C 
BRANCH  13  14
HETATM   14  C   UNL     1      27.212  10.798 -20.884  1.00  0.00    -0.027 C 
HETATM   15  C   UNL     1      25.985  11.143 -21.319  1.00  0.00    -0.027 C 
BRANCH  15  16
HETATM   16  C   UNL     1      25.107  12.214 -20.722  1.00  0.00     0.053 C 
BRANCH  16  17
HETATM   17  C   UNL     1      24.069  11.596 -19.811  1.00  0.00    -0.027 C 
HETATM   18  C   UNL     1      24.026  11.651 -18.464  1.00  0.00    -0.027 C 
BRANCH  18  19
HETATM   19  C   UNL     1      25.013  12.340 -17.558  1.00  0.00     0.053 C 
BRANCH  19  20
HETATM   20  C   UNL     1      25.779  11.305 -16.774  1.00  0.00    -0.027 C 
HETATM   21  C   UNL     1      25.837  11.245 -15.431  1.00  0.00    -0.031 C 
BRANCH  21  22
HETATM   22  C   UNL     1      25.135  12.218 -14.517  1.00  0.00     0.022 C 
HETATM   23  C   UNL     1      23.830  11.638 -13.983  1.00  0.00     0.009 C 
ENDBRANCH  21  22
ENDBRANCH  19  20
ENDBRANCH  18  19
ENDBRANCH  16  17
ENDBRANCH  15  16
ENDBRANCH  13  14
ENDBRANCH  12  13
ENDBRANCH  10  11
ENDBRANCH   9  10
ENDBRANCH   7   8
ENDBRANCH   6   7
ENDBRANCH   5   6
ENDBRANCH   3   5
ENDBRANCH   1   3
TORSDOF 14
ENDMDL
