MODEL 1
REMARK VINA RESULT:      -5.5      0.000      0.000
REMARK  14 active torsions:
REMARK  status: ('A' for Active; 'I' for Inactive)
REMARK    1  A    between atoms: O_1  and  C_11 
REMARK    2  A    between atoms: C_3  and  C_4 
REMARK    3  A    between atoms: C_3  and  C_5 
REMARK    4  A    between atoms: C_4  and  C_6 
REMARK    5  A    between atoms: C_5  and  C_7 
REMARK    6  A    between atoms: C_6  and  C_8 
REMARK    7  A    between atoms: C_7  and  C_9 
REMARK    8  A    between atoms: C_8  and  C_10 
REMARK    9  A    between atoms: C_9  and  C_11 
REMARK   10  A    between atoms: C_12  and  C_13 
REMARK   11  A    between atoms: C_13  and  C_14 
REMARK   12  A    between atoms: C_15  and  C_16 
REMARK   13  A    between atoms: C_16  and  C_17 
REMARK   14  A    between atoms: C_18  and  C_19 
ROOT
HETATM    1  O   UNL     1      26.204  11.479  -7.123  1.00  0.00    -0.776 OA
HETATM    2  H   UNL     1      25.627  11.081  -6.456  1.00  0.00     0.167 HD
ENDROOT
BRANCH   1   3
HETATM    3  C   UNL     1      25.839  12.589  -7.797  1.00  0.00     0.139 C 
HETATM    4  O   UNL     1      26.422  13.645  -7.601  1.00  0.00    -0.650 OA
BRANCH   3   5
HETATM    5  C   UNL     1      24.717  12.521  -8.797  1.00  0.00     0.110 C 
BRANCH   5   6
HETATM    6  C   UNL     1      24.825  11.292  -9.711  1.00  0.00     0.010 C 
BRANCH   6   7
HETATM    7  C   UNL     1      26.080  11.332 -10.597  1.00  0.00     0.001 C 
BRANCH   7   8
HETATM    8  C   UNL     1      25.715  11.183 -12.079  1.00  0.00     0.000 C 
BRANCH   8   9
HETATM    9  C   UNL     1      26.523  12.163 -12.937  1.00  0.00     0.000 C 
BRANCH   9  10
HETATM   10  C   UNL     1      25.649  12.805 -14.026  1.00  0.00     0.004 C 
BRANCH  10  11
HETATM   11  C   UNL     1      24.667  11.796 -14.636  1.00  0.00     0.027 C 
BRANCH  11  12
HETATM   12  C   UNL     1      25.360  10.883 -15.622  1.00  0.00    -0.030 C 
HETATM   13  C   UNL     1      25.596  11.185 -16.911  1.00  0.00    -0.027 C 
BRANCH  13  14
HETATM   14  C   UNL     1      25.183  12.485 -17.549  1.00  0.00     0.053 C 
BRANCH  14  15
HETATM   15  C   UNL     1      24.022  12.266 -18.487  1.00  0.00    -0.027 C 
HETATM   16  C   UNL     1      24.114  11.797 -19.749  1.00  0.00    -0.027 C 
BRANCH  16  17
HETATM   17  C   UNL     1      25.388  11.377 -20.438  1.00  0.00     0.053 C 
BRANCH  17  18
HETATM   18  C   UNL     1      25.910  12.471 -21.346  1.00  0.00    -0.027 C 
HETATM   19  C   UNL     1      25.821  12.481 -22.691  1.00  0.00    -0.031 C 
BRANCH  19  20
HETATM   20  C   UNL     1      25.146  11.431 -23.540  1.00  0.00     0.022 C 
HETATM   21  C   UNL     1      23.752  11.867 -23.997  1.00  0.00     0.009 C 
ENDBRANCH  19  20
ENDBRANCH  17  18
ENDBRANCH  16  17
ENDBRANCH  14  15
ENDBRANCH  13  14
ENDBRANCH  11  12
ENDBRANCH  10  11
ENDBRANCH   9  10
ENDBRANCH   8   9
ENDBRANCH   7   8
ENDBRANCH   6   7
ENDBRANCH   5   6
ENDBRANCH   3   5
ENDBRANCH   1   3
TORSDOF 14
ENDMDL
MODEL 2
REMARK VINA RESULT:      -5.3      4.130     10.533
REMARK  14 active torsions:
REMARK  status: ('A' for Active; 'I' for Inactive)
REMARK    1  A    between atoms: O_1  and  C_11 
REMARK    2  A    between atoms: C_3  and  C_4 
REMARK    3  A    between atoms: C_3  and  C_5 
REMARK    4  A    between atoms: C_4  and  C_6 
REMARK    5  A    between atoms: C_5  and  C_7 
REMARK    6  A    between atoms: C_6  and  C_8 
REMARK    7  A    between atoms: C_7  and  C_9 
REMARK    8  A    between atoms: C_8  and  C_10 
REMARK    9  A    between atoms: C_9  and  C_11 
REMARK   10  A    between atoms: C_12  and  C_13 
REMARK   11  A    between atoms: C_13  and  C_14 
REMARK   12  A    between atoms: C_15  and  C_16 
REMARK   13  A    between atoms: C_16  and  C_17 
REMARK   14  A    between atoms: C_18  and  C_19 
ROOT
HETATM    1  O   UNL     1      26.970  11.174 -20.210  1.00  0.00    -0.776 OA
HETATM    2  H   UNL     1      27.815  11.392 -20.626  1.00  0.00     0.167 HD
ENDROOT
BRANCH   1   3
HETATM    3  C   UNL     1      26.229  12.115 -19.588  1.00  0.00     0.139 C 
HETATM    4  O   UNL     1      26.772  13.072 -19.056  1.00  0.00    -0.650 OA
BRANCH   3   5
HETATM    5  C   UNL     1      24.730  11.986 -19.559  1.00  0.00     0.110 C 
BRANCH   5   6
HETATM    6  C   UNL     1      24.165  12.079 -18.134  1.00  0.00     0.010 C 
BRANCH   6   7
HETATM    7  C   UNL     1      24.717  10.979 -17.215  1.00  0.00     0.001 C 
BRANCH   7   8
HETATM    8  C   UNL     1      25.210  11.565 -15.886  1.00  0.00     0.000 C 
BRANCH   8   9
HETATM    9  C   UNL     1      24.069  12.276 -15.150  1.00  0.00     0.000 C 
BRANCH   9  10
HETATM   10  C   UNL     1      23.781  11.615 -13.793  1.00  0.00     0.004 C 
BRANCH  10  11
HETATM   11  C   UNL     1      25.069  11.166 -13.093  1.00  0.00     0.027 C 
BRANCH  11  12
HETATM   12  C   UNL     1      25.811  12.343 -12.499  1.00  0.00    -0.030 C 
HETATM   13  C   UNL     1      26.296  12.390 -11.245  1.00  0.00    -0.027 C 
BRANCH  13  14
HETATM   14  C   UNL     1      26.149  11.265 -10.255  1.00  0.00     0.053 C 
BRANCH  14  15
HETATM   15  C   UNL     1      25.029  11.557  -9.289  1.00  0.00    -0.027 C 
HETATM   16  C   UNL     1      25.151  11.627  -7.947  1.00  0.00    -0.027 C 
BRANCH  16  17
HETATM   17  C   UNL     1      26.435  11.458  -7.173  1.00  0.00     0.053 C 
BRANCH  17  18
HETATM   18  C   UNL     1      26.755  12.695  -6.361  1.00  0.00    -0.027 C 
HETATM   19  C   UNL     1      27.393  13.790  -6.821  1.00  0.00    -0.031 C 
BRANCH  19  20
HETATM   20  C   UNL     1      27.866  14.007  -8.238  1.00  0.00     0.022 C 
HETATM   21  C   UNL     1      29.255  13.411  -8.481  1.00  0.00     0.009 C 
ENDBRANCH  19  20
ENDBRANCH  17  18
ENDBRANCH  16  17
ENDBRANCH  14  15
ENDBRANCH  13  14
ENDBRANCH  11  12
ENDBRANCH  10  11
ENDBRANCH   9  10
ENDBRANCH   8   9
ENDBRANCH   7   8
ENDBRANCH   6   7
ENDBRANCH   5   6
ENDBRANCH   3   5
ENDBRANCH   1   3
TORSDOF 14
ENDMDL
MODEL 3
REMARK VINA RESULT:      -5.2      4.650      9.122
REMARK  14 active torsions:
REMARK  status: ('A' for Active; 'I' for Inactive)
REMARK    1  A    between atoms: O_1  and  C_11 
REMARK    2  A    between atoms: C_3  and  C_4 
REMARK    3  A    between atoms: C_3  and  C_5 
REMARK    4  A    between atoms: C_4  and  C_6 
REMARK    5  A    between atoms: C_5  and  C_7 
REMARK    6  A    between atoms: C_6  and  C_8 
REMARK    7  A    between atoms: C_7  and  C_9 
REMARK    8  A    between atoms: C_8  and  C_10 
REMARK    9  A    between atoms: C_9  and  C_11 
REMARK   10  A    between atoms: C_12  and  C_13 
REMARK   11  A    between atoms: C_13  and  C_14 
REMARK   12  A    between atoms: C_15  and  C_16 
REMARK   13  A    between atoms: C_16  and  C_17 
REMARK   14  A    between atoms: C_18  and  C_19 
ROOT
HETATM    1  O   UNL     1      27.607  13.006 -14.698  1.00  0.00    -0.776 OA
HETATM    2  H   UNL     1      27.658  12.588 -13.827  1.00  0.00     0.167 HD
ENDROOT
BRANCH   1   3
HETATM    3  C   UNL     1      26.604  12.723 -15.556  1.00  0.00     0.139 C 
HETATM    4  O   UNL     1      26.608  13.201 -16.682  1.00  0.00    -0.650 OA
BRANCH   3   5
HETATM    5  C   UNL     1      25.486  11.813 -15.126  1.00  0.00     0.110 C 
BRANCH   5   6
HETATM    6  C   UNL     1      24.895  12.217 -13.768  1.00  0.00     0.010 C 
BRANCH   6   7
HETATM    7  C   UNL     1      24.757  11.021 -12.813  1.00  0.00     0.001 C 
BRANCH   7   8
HETATM    8  C   UNL     1      25.410  11.317 -11.458  1.00  0.00     0.000 C 
BRANCH   8   9
HETATM    9  C   UNL     1      24.434  12.055 -10.535  1.00  0.00     0.000 C 
BRANCH   9  10
HETATM   10  C   UNL     1      24.389  11.412  -9.140  1.00  0.00     0.004 C 
BRANCH  10  11
HETATM   11  C   UNL     1      24.267  12.464  -8.031  1.00  0.00     0.027 C 
BRANCH  11  12
HETATM   12  C   UNL     1      24.828  11.952  -6.724  1.00  0.00    -0.030 C 
HETATM   13  C   UNL     1      26.069  12.207  -6.270  1.00  0.00    -0.027 C 
BRANCH  13  14
HETATM   14  C   UNL     1      27.076  13.035  -7.024  1.00  0.00     0.053 C 
BRANCH  14  15
HETATM   15  C   UNL     1      27.783  12.192  -8.057  1.00  0.00    -0.027 C 
HETATM   16  C   UNL     1      28.261  12.639  -9.236  1.00  0.00    -0.027 C 
BRANCH  16  17
HETATM   17  C   UNL     1      28.205  14.067  -9.721  1.00  0.00     0.053 C 
BRANCH  17  18
HETATM   18  C   UNL     1      27.853  14.134 -11.193  1.00  0.00    -0.027 C 
HETATM   19  C   UNL     1      28.279  15.077 -12.056  1.00  0.00    -0.031 C 
BRANCH  19  20
HETATM   20  C   UNL     1      29.220  16.212 -11.732  1.00  0.00     0.022 C 
HETATM   21  C   UNL     1      28.507  17.567 -11.716  1.00  0.00     0.009 C 
ENDBRANCH  19  20
ENDBRANCH  17  18
ENDBRANCH  16  17
ENDBRANCH  14  15
ENDBRANCH  13  14
ENDBRANCH  11  12
ENDBRANCH  10  11
ENDBRANCH   9  10
ENDBRANCH   8   9
ENDBRANCH   7   8
ENDBRANCH   6   7
ENDBRANCH   5   6
ENDBRANCH   3   5
ENDBRANCH   1   3
TORSDOF 14
ENDMDL
MODEL 4
REMARK VINA RESULT:      -5.2      6.039      7.924
REMARK  14 active torsions:
REMARK  status: ('A' for Active; 'I' for Inactive)
REMARK    1  A    between atoms: O_1  and  C_11 
REMARK    2  A    between atoms: C_3  and  C_4 
REMARK    3  A    between atoms: C_3  and  C_5 
REMARK    4  A    between atoms: C_4  and  C_6 
REMARK    5  A    between atoms: C_5  and  C_7 
REMARK    6  A    between atoms: C_6  and  C_8 
REMARK    7  A    between atoms: C_7  and  C_9 
REMARK    8  A    between atoms: C_8  and  C_10 
REMARK    9  A    between atoms: C_9  and  C_11 
REMARK   10  A    between atoms: C_12  and  C_13 
REMARK   11  A    between atoms: C_13  and  C_14 
REMARK   12  A    between atoms: C_15  and  C_16 
REMARK   13  A    between atoms: C_16  and  C_17 
REMARK   14  A    between atoms: C_18  and  C_19 
ROOT
HETATM    1  O   UNL     1      25.734  10.724 -12.257  1.00  0.00    -0.776 OA
HETATM    2  H   UNL     1      26.667  10.955 -12.151  1.00  0.00     0.167 HD
ENDROOT
BRANCH   1   3
HETATM    3  C   UNL     1      24.827  11.633 -12.672  1.00  0.00     0.139 C 
HETATM    4  O   UNL     1      24.739  12.713 -12.107  1.00  0.00    -0.650 OA
BRANCH   3   5
HETATM    5  C   UNL     1      23.930  11.315 -13.837  1.00  0.00     0.110 C 
BRANCH   5   6
HETATM    6  C   UNL     1      24.172  12.250 -15.031  1.00  0.00     0.010 C 
BRANCH   6   7
HETATM    7  C   UNL     1      25.049  11.600 -16.112  1.00  0.00     0.001 C 
BRANCH   7   8
HETATM    8  C   UNL     1      26.513  12.033 -15.970  1.00  0.00     0.000 C 
BRANCH   8   9
HETATM    9  C   UNL     1      27.404  10.833 -15.635  1.00  0.00     0.000 C 
BRANCH   9  10
HETATM   10  C   UNL     1      28.414  11.177 -14.529  1.00  0.00     0.004 C 
BRANCH  10  11
HETATM   11  C   UNL     1      29.858  10.916 -14.975  1.00  0.00     0.027 C 
BRANCH  11  12
HETATM   12  C   UNL     1      29.933   9.756 -15.943  1.00  0.00    -0.030 C 
HETATM   13  C   UNL     1      30.367   8.522 -15.629  1.00  0.00    -0.027 C 
BRANCH  13  14
HETATM   14  C   UNL     1      30.853   8.136 -14.258  1.00  0.00     0.053 C 
BRANCH  14  15
HETATM   15  C   UNL     1      31.167   6.662 -14.206  1.00  0.00    -0.027 C 
HETATM   16  C   UNL     1      32.404   6.124 -14.239  1.00  0.00    -0.027 C 
BRANCH  16  17
HETATM   17  C   UNL     1      33.697   6.899 -14.300  1.00  0.00     0.053 C 
BRANCH  17  18
HETATM   18  C   UNL     1      34.603   6.373 -15.394  1.00  0.00    -0.027 C 
HETATM   19  C   UNL     1      34.536   6.716 -16.696  1.00  0.00    -0.031 C 
BRANCH  19  20
HETATM   20  C   UNL     1      33.581   7.717 -17.299  1.00  0.00     0.022 C 
HETATM   21  C   UNL     1      32.496   7.044 -18.144  1.00  0.00     0.009 C 
ENDBRANCH  19  20
ENDBRANCH  17  18
ENDBRANCH  16  17
ENDBRANCH  14  15
ENDBRANCH  13  14
ENDBRANCH  11  12
ENDBRANCH  10  11
ENDBRANCH   9  10
ENDBRANCH   8   9
ENDBRANCH   7   8
ENDBRANCH   6   7
ENDBRANCH   5   6
ENDBRANCH   3   5
ENDBRANCH   1   3
TORSDOF 14
ENDMDL
MODEL 5
REMARK VINA RESULT:      -5.2      9.248     12.620
REMARK  14 active torsions:
REMARK  status: ('A' for Active; 'I' for Inactive)
REMARK    1  A    between atoms: O_1  and  C_11 
REMARK    2  A    between atoms: C_3  and  C_4 
REMARK    3  A    between atoms: C_3  and  C_5 
REMARK    4  A    between atoms: C_4  and  C_6 
REMARK    5  A    between atoms: C_5  and  C_7 
REMARK    6  A    between atoms: C_6  and  C_8 
REMARK    7  A    between atoms: C_7  and  C_9 
REMARK    8  A    between atoms: C_8  and  C_10 
REMARK    9  A    between atoms: C_9  and  C_11 
REMARK   10  A    between atoms: C_12  and  C_13 
REMARK   11  A    between atoms: C_13  and  C_14 
REMARK   12  A    between atoms: C_15  and  C_16 
REMARK   13  A    between atoms: C_16  and  C_17 
REMARK   14  A    between atoms: C_18  and  C_19 
ROOT
HETATM    1  O   UNL     1      33.892   5.239 -16.443  1.00  0.00    -0.776 OA
HETATM    2  H   UNL     1      34.596   5.147 -17.100  1.00  0.00     0.167 HD
ENDROOT
BRANCH   1   3
HETATM    3  C   UNL     1      32.753   5.906 -16.722  1.00  0.00     0.139 C 
HETATM    4  O   UNL     1      32.021   5.520 -17.622  1.00  0.00    -0.650 OA
BRANCH   3   5
HETATM    5  C   UNL     1      32.381   7.121 -15.916  1.00  0.00     0.110 C 
BRANCH   5   6
HETATM    6  C   UNL     1      31.295   6.819 -14.874  1.00  0.00     0.010 C 
BRANCH   6   7
HETATM    7  C   UNL     1      30.817   8.086 -14.147  1.00  0.00     0.001 C 
BRANCH   7   8
HETATM    8  C   UNL     1      31.160   8.029 -12.653  1.00  0.00     0.000 C 
BRANCH   8   9
HETATM    9  C   UNL     1      30.349   6.934 -11.952  1.00  0.00     0.000 C 
BRANCH   9  10
HETATM   10  C   UNL     1      31.260   5.813 -11.427  1.00  0.00     0.004 C 
BRANCH  10  11
HETATM   11  C   UNL     1      32.419   6.366 -10.589  1.00  0.00     0.027 C 
BRANCH  11  12
HETATM   12  C   UNL     1      31.940   6.846  -9.238  1.00  0.00    -0.030 C 
HETATM   13  C   UNL     1      32.701   6.900  -8.130  1.00  0.00    -0.027 C 
BRANCH  13  14
HETATM   14  C   UNL     1      34.144   6.471  -8.091  1.00  0.00     0.053 C 
BRANCH  14  15
HETATM   15  C   UNL     1      35.043   7.663  -7.873  1.00  0.00    -0.027 C 
HETATM   16  C   UNL     1      35.815   8.243  -8.814  1.00  0.00    -0.027 C 
BRANCH  16  17
HETATM   17  C   UNL     1      35.894   7.827 -10.262  1.00  0.00     0.053 C 
BRANCH  17  18
HETATM   18  C   UNL     1      35.190   8.822 -11.161  1.00  0.00    -0.027 C 
HETATM   19  C   UNL     1      34.797   8.589 -12.429  1.00  0.00    -0.031 C 
BRANCH  19  20
HETATM   20  C   UNL     1      34.943   7.284 -13.174  1.00  0.00     0.022 C 
HETATM   21  C   UNL     1      35.736   7.446 -14.473  1.00  0.00     0.009 C 
ENDBRANCH  19  20
ENDBRANCH  17  18
ENDBRANCH  16  17
ENDBRANCH  14  15
ENDBRANCH  13  14
ENDBRANCH  11  12
ENDBRANCH  10  11
ENDBRANCH   9  10
ENDBRANCH   8   9
ENDBRANCH   7   8
ENDBRANCH   6   7
ENDBRANCH   5   6
ENDBRANCH   3   5
ENDBRANCH   1   3
TORSDOF 14
ENDMDL
MODEL 6
REMARK VINA RESULT:      -5.2      4.418      6.758
REMARK  14 active torsions:
REMARK  status: ('A' for Active; 'I' for Inactive)
REMARK    1  A    between atoms: O_1  and  C_11 
REMARK    2  A    between atoms: C_3  and  C_4 
REMARK    3  A    between atoms: C_3  and  C_5 
REMARK    4  A    between atoms: C_4  and  C_6 
REMARK    5  A    between atoms: C_5  and  C_7 
REMARK    6  A    between atoms: C_6  and  C_8 
REMARK    7  A    between atoms: C_7  and  C_9 
REMARK    8  A    between atoms: C_8  and  C_10 
REMARK    9  A    between atoms: C_9  and  C_11 
REMARK   10  A    between atoms: C_12  and  C_13 
REMARK   11  A    between atoms: C_13  and  C_14 
REMARK   12  A    between atoms: C_15  and  C_16 
REMARK   13  A    between atoms: C_16  and  C_17 
REMARK   14  A    between atoms: C_18  and  C_19 
ROOT
HETATM    1  O   UNL     1      24.193  11.177 -18.755  1.00  0.00    -0.776 OA
HETATM    2  H   UNL     1      24.474  11.331 -19.668  1.00  0.00     0.167 HD
ENDROOT
BRANCH   1   3
HETATM    3  C   UNL     1      24.740  11.858 -17.726  1.00  0.00     0.139 C 
HETATM    4  O   UNL     1      24.777  13.080 -17.750  1.00  0.00    -0.650 OA
BRANCH   3   5
HETATM    5  C   UNL     1      25.298  11.109 -16.547  1.00  0.00     0.110 C 
BRANCH   5   6
HETATM    6  C   UNL     1      25.316  11.962 -15.270  1.00  0.00     0.010 C 
BRANCH   6   7
HETATM    7  C   UNL     1      24.467  11.349 -14.147  1.00  0.00     0.001 C 
BRANCH   7   8
HETATM    8  C   UNL     1      24.052  12.414 -13.124  1.00  0.00     0.000 C 
BRANCH   8   9
HETATM    9  C   UNL     1      24.664  12.115 -11.751  1.00  0.00     0.000 C 
BRANCH   9  10
HETATM   10  C   UNL     1      25.599  10.896 -11.809  1.00  0.00     0.004 C 
BRANCH  10  11
HETATM   11  C   UNL     1      27.014  11.241 -11.328  1.00  0.00     0.027 C 
BRANCH  11  12
HETATM   12  C   UNL     1      27.556  12.459 -12.041  1.00  0.00    -0.030 C 
HETATM   13  C   UNL     1      28.345  12.423 -13.129  1.00  0.00    -0.027 C 
BRANCH  13  14
HETATM   14  C   UNL     1      28.809  11.145 -13.777  1.00  0.00     0.053 C 
BRANCH  14  15
HETATM   15  C   UNL     1      30.054  11.390 -14.592  1.00  0.00    -0.027 C 
HETATM   16  C   UNL     1      30.101  11.500 -15.936  1.00  0.00    -0.027 C 
BRANCH  16  17
HETATM   17  C   UNL     1      28.913  11.432 -16.864  1.00  0.00     0.053 C 
BRANCH  17  18
HETATM   18  C   UNL     1      28.987  12.502 -17.933  1.00  0.00    -0.027 C 
HETATM   19  C   UNL     1      28.494  13.752 -17.824  1.00  0.00    -0.031 C 
BRANCH  19  20
HETATM   20  C   UNL     1      27.818  14.332 -16.605  1.00  0.00     0.022 C 
HETATM   21  C   UNL     1      28.813  15.015 -15.664  1.00  0.00     0.009 C 
ENDBRANCH  19  20
ENDBRANCH  17  18
ENDBRANCH  16  17
ENDBRANCH  14  15
ENDBRANCH  13  14
ENDBRANCH  11  12
ENDBRANCH  10  11
ENDBRANCH   9  10
ENDBRANCH   8   9
ENDBRANCH   7   8
ENDBRANCH   6   7
ENDBRANCH   5   6
ENDBRANCH   3   5
ENDBRANCH   1   3
TORSDOF 14
ENDMDL
MODEL 7
REMARK VINA RESULT:      -5.2      8.712     11.175
REMARK  14 active torsions:
REMARK  status: ('A' for Active; 'I' for Inactive)
REMARK    1  A    between atoms: O_1  and  C_11 
REMARK    2  A    between atoms: C_3  and  C_4 
REMARK    3  A    between atoms: C_3  and  C_5 
REMARK    4  A    between atoms: C_4  and  C_6 
REMARK    5  A    between atoms: C_5  and  C_7 
REMARK    6  A    between atoms: C_6  and  C_8 
REMARK    7  A    between atoms: C_7  and  C_9 
REMARK    8  A    between atoms: C_8  and  C_10 
REMARK    9  A    between atoms: C_9  and  C_11 
REMARK   10  A    between atoms: C_12  and  C_13 
REMARK   11  A    between atoms: C_13  and  C_14 
REMARK   12  A    between atoms: C_15  and  C_16 
REMARK   13  A    between atoms: C_16  and  C_17 
REMARK   14  A    between atoms: C_18  and  C_19 
ROOT
HETATM    1  O   UNL     1      29.358  10.127 -14.403  1.00  0.00    -0.776 OA
HETATM    2  H   UNL     1      29.697  11.003 -14.173  1.00  0.00     0.167 HD
ENDROOT
BRANCH   1   3
HETATM    3  C   UNL     1      30.001   9.334 -15.286  1.00  0.00     0.139 C 
HETATM    4  O   UNL     1      29.606   9.256 -16.441  1.00  0.00    -0.650 OA
BRANCH   3   5
HETATM    5  C   UNL     1      31.208   8.552 -14.848  1.00  0.00     0.110 C 
BRANCH   5   6
HETATM    6  C   UNL     1      31.195   7.112 -15.381  1.00  0.00     0.010 C 
BRANCH   6   7
HETATM    7  C   UNL     1      31.125   6.073 -14.251  1.00  0.00     0.001 C 
BRANCH   7   8
HETATM    8  C   UNL     1      31.201   6.745 -12.875  1.00  0.00     0.000 C 
BRANCH   8   9
HETATM    9  C   UNL     1      31.780   5.784 -11.832  1.00  0.00     0.000 C 
BRANCH   9  10
HETATM   10  C   UNL     1      31.203   6.061 -10.435  1.00  0.00     0.004 C 
BRANCH  10  11
HETATM   11  C   UNL     1      32.253   6.667  -9.496  1.00  0.00     0.027 C 
BRANCH  11  12
HETATM   12  C   UNL     1      33.617   6.059  -9.730  1.00  0.00    -0.030 C 
HETATM   13  C   UNL     1      34.723   6.756 -10.049  1.00  0.00    -0.027 C 
BRANCH  13  14
HETATM   14  C   UNL     1      34.739   8.251 -10.229  1.00  0.00     0.053 C 
BRANCH  14  15
HETATM   15  C   UNL     1      35.844   8.656 -11.172  1.00  0.00    -0.027 C 
HETATM   16  C   UNL     1      35.774   8.622 -12.519  1.00  0.00    -0.027 C 
BRANCH  16  17
HETATM   17  C   UNL     1      34.568   8.206 -13.325  1.00  0.00     0.053 C 
BRANCH  17  18
HETATM   18  C   UNL     1      34.745   6.817 -13.902  1.00  0.00    -0.027 C 
HETATM   19  C   UNL     1      34.877   6.525 -15.211  1.00  0.00    -0.031 C 
BRANCH  19  20
HETATM   20  C   UNL     1      34.920   7.526 -16.340  1.00  0.00     0.022 C 
HETATM   21  C   UNL     1      34.528   6.901 -17.681  1.00  0.00     0.009 C 
ENDBRANCH  19  20
ENDBRANCH  17  18
ENDBRANCH  16  17
ENDBRANCH  14  15
ENDBRANCH  13  14
ENDBRANCH  11  12
ENDBRANCH  10  11
ENDBRANCH   9  10
ENDBRANCH   8   9
ENDBRANCH   7   8
ENDBRANCH   6   7
ENDBRANCH   5   6
ENDBRANCH   3   5
ENDBRANCH   1   3
TORSDOF 14
ENDMDL
MODEL 8
REMARK VINA RESULT:      -5.1      1.473      3.678
REMARK  14 active torsions:
REMARK  status: ('A' for Active; 'I' for Inactive)
REMARK    1  A    between atoms: O_1  and  C_11 
REMARK    2  A    between atoms: C_3  and  C_4 
REMARK    3  A    between atoms: C_3  and  C_5 
REMARK    4  A    between atoms: C_4  and  C_6 
REMARK    5  A    between atoms: C_5  and  C_7 
REMARK    6  A    between atoms: C_6  and  C_8 
REMARK    7  A    between atoms: C_7  and  C_9 
REMARK    8  A    between atoms: C_8  and  C_10 
REMARK    9  A    between atoms: C_9  and  C_11 
REMARK   10  A    between atoms: C_12  and  C_13 
REMARK   11  A    between atoms: C_13  and  C_14 
REMARK   12  A    between atoms: C_15  and  C_16 
REMARK   13  A    between atoms: C_16  and  C_17 
REMARK   14  A    between atoms: C_18  and  C_19 
ROOT
HETATM    1  O   UNL     1      27.412  14.183  -6.204  1.00  0.00    -0.776 OA
HETATM    2  H   UNL     1      26.832  14.777  -6.700  1.00  0.00     0.167 HD
ENDROOT
BRANCH   1   3
HETATM    3  C   UNL     1      27.616  12.908  -6.597  1.00  0.00     0.139 C 
HETATM    4  O   UNL     1      28.190  12.676  -7.652  1.00  0.00    -0.650 OA
BRANCH   3   5
HETATM    5  C   UNL     1      27.143  11.774  -5.731  1.00  0.00     0.110 C 
BRANCH   5   6
HETATM    6  C   UNL     1      26.104  10.893  -6.440  1.00  0.00     0.010 C 
BRANCH   6   7
HETATM    7  C   UNL     1      25.056  11.722  -7.198  1.00  0.00     0.001 C 
BRANCH   7   8
HETATM    8  C   UNL     1      24.476  10.934  -8.379  1.00  0.00     0.000 C 
BRANCH   8   9
HETATM    9  C   UNL     1      23.572  11.827  -9.235  1.00  0.00     0.000 C 
BRANCH   9  10
HETATM   10  C   UNL     1      24.326  12.382 -10.454  1.00  0.00     0.004 C 
BRANCH  10  11
HETATM   11  C   UNL     1      25.242  11.327 -11.085  1.00  0.00     0.027 C 
BRANCH  11  12
HETATM   12  C   UNL     1      26.328  11.970 -11.918  1.00  0.00    -0.030 C 
HETATM   13  C   UNL     1      26.428  11.870 -13.256  1.00  0.00    -0.027 C 
BRANCH  13  14
HETATM   14  C   UNL     1      25.467  11.082 -14.105  1.00  0.00     0.053 C 
BRANCH  14  15
HETATM   15  C   UNL     1      24.271  11.927 -14.469  1.00  0.00    -0.027 C 
HETATM   16  C   UNL     1      24.042  12.477 -15.680  1.00  0.00    -0.027 C 
BRANCH  16  17
HETATM   17  C   UNL     1      24.921  12.320 -16.896  1.00  0.00     0.053 C 
BRANCH  17  18
HETATM   18  C   UNL     1      24.324  11.340 -17.884  1.00  0.00    -0.027 C 
HETATM   19  C   UNL     1      24.572  11.316 -19.208  1.00  0.00    -0.031 C 
BRANCH  19  20
HETATM   20  C   UNL     1      25.522  12.227 -19.947  1.00  0.00     0.022 C 
HETATM   21  C   UNL     1      25.535  11.951 -21.452  1.00  0.00     0.009 C 
ENDBRANCH  19  20
ENDBRANCH  17  18
ENDBRANCH  16  17
ENDBRANCH  14  15
ENDBRANCH  13  14
ENDBRANCH  11  12
ENDBRANCH  10  11
ENDBRANCH   9  10
ENDBRANCH   8   9
ENDBRANCH   7   8
ENDBRANCH   6   7
ENDBRANCH   5   6
ENDBRANCH   3   5
ENDBRANCH   1   3
TORSDOF 14
ENDMDL
MODEL 9
REMARK VINA RESULT:      -5.1     37.363     38.235
REMARK  14 active torsions:
REMARK  status: ('A' for Active; 'I' for Inactive)
REMARK    1  A    between atoms: O_1  and  C_11 
REMARK    2  A    between atoms: C_3  and  C_4 
REMARK    3  A    between atoms: C_3  and  C_5 
REMARK    4  A    between atoms: C_4  and  C_6 
REMARK    5  A    between atoms: C_5  and  C_7 
REMARK    6  A    between atoms: C_6  and  C_8 
REMARK    7  A    between atoms: C_7  and  C_9 
REMARK    8  A    between atoms: C_8  and  C_10 
REMARK    9  A    between atoms: C_9  and  C_11 
REMARK   10  A    between atoms: C_12  and  C_13 
REMARK   11  A    between atoms: C_13  and  C_14 
REMARK   12  A    between atoms: C_15  and  C_16 
REMARK   13  A    between atoms: C_16  and  C_17 
REMARK   14  A    between atoms: C_18  and  C_19 
ROOT
HETATM    1  O   UNL     1      49.499 -17.666  -7.185  1.00  0.00    -0.776 OA
HETATM    2  H   UNL     1      50.415 -17.362  -7.244  1.00  0.00     0.167 HD
ENDROOT
BRANCH   1   3
HETATM    3  C   UNL     1      48.778 -17.946  -8.291  1.00  0.00     0.139 C 
HETATM    4  O   UNL     1      47.775 -17.298  -8.550  1.00  0.00    -0.650 OA
BRANCH   3   5
HETATM    5  C   UNL     1      49.217 -19.055  -9.208  1.00  0.00     0.110 C 
BRANCH   5   6
HETATM    6  C   UNL     1      48.086 -19.532 -10.129  1.00  0.00     0.010 C 
BRANCH   6   7
HETATM    7  C   UNL     1      48.534 -19.643 -11.595  1.00  0.00     0.001 C 
BRANCH   7   8
HETATM    8  C   UNL     1      48.866 -18.264 -12.177  1.00  0.00     0.000 C 
BRANCH   8   9
HETATM    9  C   UNL     1      48.857 -18.306 -13.709  1.00  0.00     0.000 C 
BRANCH   9  10
HETATM   10  C   UNL     1      48.695 -19.743 -14.228  1.00  0.00     0.004 C 
BRANCH  10  11
HETATM   11  C   UNL     1      48.500 -19.780 -15.749  1.00  0.00     0.027 C 
BRANCH  11  12
HETATM   12  C   UNL     1      48.694 -18.412 -16.362  1.00  0.00    -0.030 C 
HETATM   13  C   UNL     1      48.934 -18.182 -17.666  1.00  0.00    -0.027 C 
BRANCH  13  14
HETATM   14  C   UNL     1      49.055 -19.276 -18.693  1.00  0.00     0.053 C 
BRANCH  14  15
HETATM   15  C   UNL     1      49.049 -18.694 -20.085  1.00  0.00    -0.027 C 
HETATM   16  C   UNL     1      47.985 -18.661 -20.914  1.00  0.00    -0.027 C 
BRANCH  16  17
HETATM   17  C   UNL     1      46.603 -19.169 -20.589  1.00  0.00     0.053 C 
BRANCH  17  18
HETATM   18  C   UNL     1      45.779 -18.112 -19.884  1.00  0.00    -0.027 C 
HETATM   19  C   UNL     1      45.240 -18.230 -18.655  1.00  0.00    -0.031 C 
BRANCH  19  20
HETATM   20  C   UNL     1      45.393 -19.416 -17.733  1.00  0.00     0.022 C 
HETATM   21  C   UNL     1      44.348 -20.500 -18.008  1.00  0.00     0.009 C 
ENDBRANCH  19  20
ENDBRANCH  17  18
ENDBRANCH  16  17
ENDBRANCH  14  15
ENDBRANCH  13  14
ENDBRANCH  11  12
ENDBRANCH  10  11
ENDBRANCH   9  10
ENDBRANCH   8   9
ENDBRANCH   7   8
ENDBRANCH   6   7
ENDBRANCH   5   6
ENDBRANCH   3   5
ENDBRANCH   1   3
TORSDOF 14
ENDMDL
MODEL 10
REMARK VINA RESULT:      -5.1      4.388      8.006
REMARK  14 active torsions:
REMARK  status: ('A' for Active; 'I' for Inactive)
REMARK    1  A    between atoms: O_1  and  C_11 
REMARK    2  A    between atoms: C_3  and  C_4 
REMARK    3  A    between atoms: C_3  and  C_5 
REMARK    4  A    between atoms: C_4  and  C_6 
REMARK    5  A    between atoms: C_5  and  C_7 
REMARK    6  A    between atoms: C_6  and  C_8 
REMARK    7  A    between atoms: C_7  and  C_9 
REMARK    8  A    between atoms: C_8  and  C_10 
REMARK    9  A    between atoms: C_9  and  C_11 
REMARK   10  A    between atoms: C_12  and  C_13 
REMARK   11  A    between atoms: C_13  and  C_14 
REMARK   12  A    between atoms: C_15  and  C_16 
REMARK   13  A    between atoms: C_16  and  C_17 
REMARK   14  A    between atoms: C_18  and  C_19 
ROOT
HETATM    1  O   UNL     1      32.013  16.511 -10.744  1.00  0.00    -0.776 OA
HETATM    2  H   UNL     1      32.741  17.098 -10.991  1.00  0.00     0.167 HD
ENDROOT
BRANCH   1   3
HETATM    3  C   UNL     1      30.914  16.391 -11.518  1.00  0.00     0.139 C 
HETATM    4  O   UNL     1      30.996  16.539 -12.728  1.00  0.00    -0.650 OA
BRANCH   3   5
HETATM    5  C   UNL     1      29.588  16.066 -10.886  1.00  0.00     0.110 C 
BRANCH   5   6
HETATM    6  C   UNL     1      28.472  15.894 -11.928  1.00  0.00     0.010 C 
BRANCH   6   7
HETATM    7  C   UNL     1      28.028  14.431 -12.070  1.00  0.00     0.001 C 
BRANCH   7   8
HETATM    8  C   UNL     1      28.048  13.987 -13.538  1.00  0.00     0.000 C 
BRANCH   8   9
HETATM    9  C   UNL     1      28.225  12.469 -13.643  1.00  0.00     0.000 C 
BRANCH   9  10
HETATM   10  C   UNL     1      28.113  11.992 -15.100  1.00  0.00     0.004 C 
BRANCH  10  11
HETATM   11  C   UNL     1      26.876  11.112 -15.317  1.00  0.00     0.027 C 
BRANCH  11  12
HETATM   12  C   UNL     1      25.769  11.880 -16.003  1.00  0.00    -0.030 C 
HETATM   13  C   UNL     1      24.534  12.058 -15.500  1.00  0.00    -0.027 C 
BRANCH  13  14
HETATM   14  C   UNL     1      24.087  11.496 -14.177  1.00  0.00     0.053 C 
BRANCH  14  15
HETATM   15  C   UNL     1      24.320  12.498 -13.073  1.00  0.00    -0.027 C 
HETATM   16  C   UNL     1      24.963  12.249 -11.914  1.00  0.00    -0.027 C 
BRANCH  16  17
HETATM   17  C   UNL     1      25.595  10.935 -11.526  1.00  0.00     0.053 C 
BRANCH  17  18
HETATM   18  C   UNL     1      26.832  11.148 -10.678  1.00  0.00    -0.027 C 
HETATM   19  C   UNL     1      26.854  11.718  -9.457  1.00  0.00    -0.031 C 
BRANCH  19  20
HETATM   20  C   UNL     1      25.651  12.207  -8.688  1.00  0.00     0.022 C 
HETATM   21  C   UNL     1      25.111  11.147  -7.725  1.00  0.00     0.009 C 
ENDBRANCH  19  20
ENDBRANCH  17  18
ENDBRANCH  16  17
ENDBRANCH  14  15
ENDBRANCH  13  14
ENDBRANCH  11  12
ENDBRANCH  10  11
ENDBRANCH   9  10
ENDBRANCH   8   9
ENDBRANCH   7   8
ENDBRANCH   6   7
ENDBRANCH   5   6
ENDBRANCH   3   5
ENDBRANCH   1   3
TORSDOF 14
ENDMDL
MODEL 11
REMARK VINA RESULT:      -5.1      4.937      8.566
REMARK  14 active torsions:
REMARK  status: ('A' for Active; 'I' for Inactive)
REMARK    1  A    between atoms: O_1  and  C_11 
REMARK    2  A    between atoms: C_3  and  C_4 
REMARK    3  A    between atoms: C_3  and  C_5 
REMARK    4  A    between atoms: C_4  and  C_6 
REMARK    5  A    between atoms: C_5  and  C_7 
REMARK    6  A    between atoms: C_6  and  C_8 
REMARK    7  A    between atoms: C_7  and  C_9 
REMARK    8  A    between atoms: C_8  and  C_10 
REMARK    9  A    between atoms: C_9  and  C_11 
REMARK   10  A    between atoms: C_12  and  C_13 
REMARK   11  A    between atoms: C_13  and  C_14 
REMARK   12  A    between atoms: C_15  and  C_16 
REMARK   13  A    between atoms: C_16  and  C_17 
REMARK   14  A    between atoms: C_18  and  C_19 
ROOT
HETATM    1  O   UNL     1      25.769  10.723 -12.215  1.00  0.00    -0.776 OA
HETATM    2  H   UNL     1      26.673  11.049 -12.101  1.00  0.00     0.167 HD
ENDROOT
BRANCH   1   3
HETATM    3  C   UNL     1      24.767  11.544 -12.594  1.00  0.00     0.139 C 
HETATM    4  O   UNL     1      24.532  12.560 -11.956  1.00  0.00    -0.650 OA
BRANCH   3   5
HETATM    5  C   UNL     1      23.945  11.209 -13.809  1.00  0.00     0.110 C 
BRANCH   5   6
HETATM    6  C   UNL     1      24.118  12.242 -14.932  1.00  0.00     0.010 C 
BRANCH   6   7
HETATM    7  C   UNL     1      25.119  11.778 -16.002  1.00  0.00     0.001 C 
BRANCH   7   8
HETATM    8  C   UNL     1      26.545  12.223 -15.655  1.00  0.00     0.000 C 
BRANCH   8   9
HETATM    9  C   UNL     1      27.397  11.024 -15.224  1.00  0.00     0.000 C 
BRANCH   9  10
HETATM   10  C   UNL     1      28.650  11.476 -14.457  1.00  0.00     0.004 C 
BRANCH  10  11
HETATM   11  C   UNL     1      29.937  10.974 -15.123  1.00  0.00     0.027 C 
BRANCH  11  12
HETATM   12  C   UNL     1      29.721   9.638 -15.798  1.00  0.00    -0.030 C 
HETATM   13  C   UNL     1      30.417   8.519 -15.525  1.00  0.00    -0.027 C 
BRANCH  13  14
HETATM   14  C   UNL     1      31.526   8.458 -14.508  1.00  0.00     0.053 C 
BRANCH  14  15
HETATM   15  C   UNL     1      32.081   7.059 -14.417  1.00  0.00    -0.027 C 
HETATM   16  C   UNL     1      31.651   6.101 -13.569  1.00  0.00    -0.027 C 
BRANCH  16  17
HETATM   17  C   UNL     1      30.518   6.245 -12.584  1.00  0.00     0.053 C 
BRANCH  17  18
HETATM   18  C   UNL     1      31.037   6.455 -11.176  1.00  0.00    -0.027 C 
HETATM   19  C   UNL     1      30.896   7.583 -10.451  1.00  0.00    -0.031 C 
BRANCH  19  20
HETATM   20  C   UNL     1      30.160   8.827 -10.886  1.00  0.00     0.022 C 
HETATM   21  C   UNL     1      31.113   9.926 -11.361  1.00  0.00     0.009 C 
ENDBRANCH  19  20
ENDBRANCH  17  18
ENDBRANCH  16  17
ENDBRANCH  14  15
ENDBRANCH  13  14
ENDBRANCH  11  12
ENDBRANCH  10  11
ENDBRANCH   9  10
ENDBRANCH   8   9
ENDBRANCH   7   8
ENDBRANCH   6   7
ENDBRANCH   5   6
ENDBRANCH   3   5
ENDBRANCH   1   3
TORSDOF 14
ENDMDL
MODEL 12
REMARK VINA RESULT:      -5.1      4.233      9.130
REMARK  14 active torsions:
REMARK  status: ('A' for Active; 'I' for Inactive)
REMARK    1  A    between atoms: O_1  and  C_11 
REMARK    2  A    between atoms: C_3  and  C_4 
REMARK    3  A    between atoms: C_3  and  C_5 
REMARK    4  A    between atoms: C_4  and  C_6 
REMARK    5  A    between atoms: C_5  and  C_7 
REMARK    6  A    between atoms: C_6  and  C_8 
REMARK    7  A    between atoms: C_7  and  C_9 
REMARK    8  A    between atoms: C_8  and  C_10 
REMARK    9  A    between atoms: C_9  and  C_11 
REMARK   10  A    between atoms: C_12  and  C_13 
REMARK   11  A    between atoms: C_13  and  C_14 
REMARK   12  A    between atoms: C_15  and  C_16 
REMARK   13  A    between atoms: C_16  and  C_17 
REMARK   14  A    between atoms: C_18  and  C_19 
ROOT
HETATM    1  O   UNL     1      31.089  12.878 -12.658  1.00  0.00    -0.776 OA
HETATM    2  H   UNL     1      31.910  13.092 -13.123  1.00  0.00     0.167 HD
ENDROOT
BRANCH   1   3
HETATM    3  C   UNL     1      29.883  13.126 -13.209  1.00  0.00     0.139 C 
HETATM    4  O   UNL     1      29.533  14.277 -13.427  1.00  0.00    -0.650 OA
BRANCH   3   5
HETATM    5  C   UNL     1      28.973  11.982 -13.563  1.00  0.00     0.110 C 
BRANCH   5   6
HETATM    6  C   UNL     1      28.373  12.127 -14.969  1.00  0.00     0.010 C 
BRANCH   6   7
HETATM    7  C   UNL     1      27.745  10.818 -15.473  1.00  0.00     0.001 C 
BRANCH   7   8
HETATM    8  C   UNL     1      26.465  11.090 -16.272  1.00  0.00     0.000 C 
BRANCH   8   9
HETATM    9  C   UNL     1      25.623  12.176 -15.593  1.00  0.00     0.000 C 
BRANCH   9  10
HETATM   10  C   UNL     1      24.265  11.623 -15.132  1.00  0.00     0.004 C 
BRANCH  10  11
HETATM   11  C   UNL     1      24.081  11.758 -13.615  1.00  0.00     0.027 C 
BRANCH  11  12
HETATM   12  C   UNL     1      25.229  12.515 -12.988  1.00  0.00    -0.030 C 
HETATM   13  C   UNL     1      25.676  12.329 -11.732  1.00  0.00    -0.027 C 
BRANCH  13  14
HETATM   14  C   UNL     1      25.070  11.338 -10.774  1.00  0.00     0.053 C 
BRANCH  14  15
HETATM   15  C   UNL     1      24.180  12.043  -9.780  1.00  0.00    -0.027 C 
HETATM   16  C   UNL     1      24.235  11.896  -8.440  1.00  0.00    -0.027 C 
BRANCH  16  17
HETATM   17  C   UNL     1      25.216  11.029  -7.691  1.00  0.00     0.053 C 
BRANCH  17  18
HETATM   18  C   UNL     1      26.123  11.860  -6.808  1.00  0.00    -0.027 C 
HETATM   19  C   UNL     1      27.252  12.478  -7.207  1.00  0.00    -0.031 C 
BRANCH  19  20
HETATM   20  C   UNL     1      27.799  12.496  -8.614  1.00  0.00     0.022 C 
HETATM   21  C   UNL     1      28.047  13.920  -9.118  1.00  0.00     0.009 C 
ENDBRANCH  19  20
ENDBRANCH  17  18
ENDBRANCH  16  17
ENDBRANCH  14  15
ENDBRANCH  13  14
ENDBRANCH  11  12
ENDBRANCH  10  11
ENDBRANCH   9  10
ENDBRANCH   8   9
ENDBRANCH   7   8
ENDBRANCH   6   7
ENDBRANCH   5   6
ENDBRANCH   3   5
ENDBRANCH   1   3
TORSDOF 14
ENDMDL
MODEL 13
REMARK VINA RESULT:      -5.1      4.952      8.878
REMARK  14 active torsions:
REMARK  status: ('A' for Active; 'I' for Inactive)
REMARK    1  A    between atoms: O_1  and  C_11 
REMARK    2  A    between atoms: C_3  and  C_4 
REMARK    3  A    between atoms: C_3  and  C_5 
REMARK    4  A    between atoms: C_4  and  C_6 
REMARK    5  A    between atoms: C_5  and  C_7 
REMARK    6  A    between atoms: C_6  and  C_8 
REMARK    7  A    between atoms: C_7  and  C_9 
REMARK    8  A    between atoms: C_8  and  C_10 
REMARK    9  A    between atoms: C_9  and  C_11 
REMARK   10  A    between atoms: C_12  and  C_13 
REMARK   11  A    between atoms: C_13  and  C_14 
REMARK   12  A    between atoms: C_15  and  C_16 
REMARK   13  A    between atoms: C_16  and  C_17 
REMARK   14  A    between atoms: C_18  and  C_19 
ROOT
HETATM    1  O   UNL     1      28.182  13.857 -14.730  1.00  0.00    -0.776 OA
HETATM    2  H   UNL     1      28.352  13.714 -13.788  1.00  0.00     0.167 HD
ENDROOT
BRANCH   1   3
HETATM    3  C   UNL     1      27.223  13.168 -15.384  1.00  0.00     0.139 C 
HETATM    4  O   UNL     1      26.926  13.469 -16.531  1.00  0.00    -0.650 OA
BRANCH   3   5
HETATM    5  C   UNL     1      26.528  12.023 -14.700  1.00  0.00     0.110 C 
BRANCH   5   6
HETATM    6  C   UNL     1      26.005  12.406 -13.308  1.00  0.00     0.010 C 
BRANCH   6   7
HETATM    7  C   UNL     1      25.127  11.306 -12.693  1.00  0.00     0.001 C 
BRANCH   7   8
HETATM    8  C   UNL     1      25.332  11.219 -11.175  1.00  0.00     0.000 C 
BRANCH   8   9
HETATM    9  C   UNL     1      24.326  12.112 -10.440  1.00  0.00     0.000 C 
BRANCH   9  10
HETATM   10  C   UNL     1      23.922  11.503  -9.088  1.00  0.00     0.004 C 
BRANCH  10  11
HETATM   11  C   UNL     1      24.326  12.404  -7.915  1.00  0.00     0.027 C 
BRANCH  11  12
HETATM   12  C   UNL     1      25.029  11.616  -6.833  1.00  0.00    -0.030 C 
HETATM   13  C   UNL     1      26.335  11.292  -6.847  1.00  0.00    -0.027 C 
BRANCH  13  14
HETATM   14  C   UNL     1      27.272  11.666  -7.964  1.00  0.00     0.053 C 
BRANCH  14  15
HETATM   15  C   UNL     1      27.775  13.076  -7.780  1.00  0.00    -0.027 C 
HETATM   16  C   UNL     1      27.989  13.965  -8.771  1.00  0.00    -0.027 C 
BRANCH  16  17
HETATM   17  C   UNL     1      27.735  13.723 -10.238  1.00  0.00     0.053 C 
BRANCH  17  18
HETATM   18  C   UNL     1      28.997  13.909 -11.055  1.00  0.00    -0.027 C 
HETATM   19  C   UNL     1      29.646  12.935 -11.723  1.00  0.00    -0.031 C 
BRANCH  19  20
HETATM   20  C   UNL     1      29.215  11.492 -11.823  1.00  0.00     0.022 C 
HETATM   21  C   UNL     1      29.716  10.826 -13.106  1.00  0.00     0.009 C 
ENDBRANCH  19  20
ENDBRANCH  17  18
ENDBRANCH  16  17
ENDBRANCH  14  15
ENDBRANCH  13  14
ENDBRANCH  11  12
ENDBRANCH  10  11
ENDBRANCH   9  10
ENDBRANCH   8   9
ENDBRANCH   7   8
ENDBRANCH   6   7
ENDBRANCH   5   6
ENDBRANCH   3   5
ENDBRANCH   1   3
TORSDOF 14
ENDMDL
MODEL 14
REMARK VINA RESULT:      -5.0      9.015     12.241
REMARK  14 active torsions:
REMARK  status: ('A' for Active; 'I' for Inactive)
REMARK    1  A    between atoms: O_1  and  C_11 
REMARK    2  A    between atoms: C_3  and  C_4 
REMARK    3  A    between atoms: C_3  and  C_5 
REMARK    4  A    between atoms: C_4  and  C_6 
REMARK    5  A    between atoms: C_5  and  C_7 
REMARK    6  A    between atoms: C_6  and  C_8 
REMARK    7  A    between atoms: C_7  and  C_9 
REMARK    8  A    between atoms: C_8  and  C_10 
REMARK    9  A    between atoms: C_9  and  C_11 
REMARK   10  A    between atoms: C_12  and  C_13 
REMARK   11  A    between atoms: C_13  and  C_14 
REMARK   12  A    between atoms: C_15  and  C_16 
REMARK   13  A    between atoms: C_16  and  C_17 
REMARK   14  A    between atoms: C_18  and  C_19 
ROOT
HETATM    1  O   UNL     1      31.053   8.932 -16.563  1.00  0.00    -0.776 OA
HETATM    2  H   UNL     1      31.808   9.301 -16.083  1.00  0.00     0.167 HD
ENDROOT
BRANCH   1   3
HETATM    3  C   UNL     1      30.813   7.605 -16.583  1.00  0.00     0.139 C 
HETATM    4  O   UNL     1      29.915   7.154 -17.279  1.00  0.00    -0.650 OA
BRANCH   3   5
HETATM    5  C   UNL     1      31.659   6.680 -15.751  1.00  0.00     0.110 C 
BRANCH   5   6
HETATM    6  C   UNL     1      32.903   7.379 -15.183  1.00  0.00     0.010 C 
BRANCH   6   7
HETATM    7  C   UNL     1      34.100   7.309 -16.143  1.00  0.00     0.001 C 
BRANCH   7   8
HETATM    8  C   UNL     1      35.423   7.233 -15.372  1.00  0.00     0.000 C 
BRANCH   8   9
HETATM    9  C   UNL     1      35.168   7.130 -13.865  1.00  0.00     0.000 C 
BRANCH   9  10
HETATM   10  C   UNL     1      35.784   8.319 -13.111  1.00  0.00     0.004 C 
BRANCH  10  11
HETATM   11  C   UNL     1      34.853   8.838 -12.007  1.00  0.00     0.027 C 
BRANCH  11  12
HETATM   12  C   UNL     1      35.607   9.071 -10.717  1.00  0.00    -0.030 C 
HETATM   13  C   UNL     1      35.872   8.122  -9.802  1.00  0.00    -0.027 C 
BRANCH  13  14
HETATM   14  C   UNL     1      35.433   6.688  -9.940  1.00  0.00     0.053 C 
BRANCH  14  15
HETATM   15  C   UNL     1      34.087   6.484  -9.291  1.00  0.00    -0.027 C 
HETATM   16  C   UNL     1      32.969   6.070  -9.923  1.00  0.00    -0.027 C 
BRANCH  16  17
HETATM   17  C   UNL     1      32.870   5.705 -11.383  1.00  0.00     0.053 C 
BRANCH  17  18
HETATM   18  C   UNL     1      31.442   5.798 -11.878  1.00  0.00    -0.027 C 
HETATM   19  C   UNL     1      30.753   6.940 -12.069  1.00  0.00    -0.031 C 
BRANCH  19  20
HETATM   20  C   UNL     1      31.287   8.338 -11.871  1.00  0.00     0.022 C 
HETATM   21  C   UNL     1      30.812   9.299 -12.963  1.00  0.00     0.009 C 
ENDBRANCH  19  20
ENDBRANCH  17  18
ENDBRANCH  16  17
ENDBRANCH  14  15
ENDBRANCH  13  14
ENDBRANCH  11  12
ENDBRANCH  10  11
ENDBRANCH   9  10
ENDBRANCH   8   9
ENDBRANCH   7   8
ENDBRANCH   6   7
ENDBRANCH   5   6
ENDBRANCH   3   5
ENDBRANCH   1   3
TORSDOF 14
ENDMDL
MODEL 15
REMARK VINA RESULT:      -4.9     37.182     38.040
REMARK  14 active torsions:
REMARK  status: ('A' for Active; 'I' for Inactive)
REMARK    1  A    between atoms: O_1  and  C_11 
REMARK    2  A    between atoms: C_3  and  C_4 
REMARK    3  A    between atoms: C_3  and  C_5 
REMARK    4  A    between atoms: C_4  and  C_6 
REMARK    5  A    between atoms: C_5  and  C_7 
REMARK    6  A    between atoms: C_6  and  C_8 
REMARK    7  A    between atoms: C_7  and  C_9 
REMARK    8  A    between atoms: C_8  and  C_10 
REMARK    9  A    between atoms: C_9  and  C_11 
REMARK   10  A    between atoms: C_12  and  C_13 
REMARK   11  A    between atoms: C_13  and  C_14 
REMARK   12  A    between atoms: C_15  and  C_16 
REMARK   13  A    between atoms: C_16  and  C_17 
REMARK   14  A    between atoms: C_18  and  C_19 
ROOT
HETATM    1  O   UNL     1      48.819 -16.449  -7.939  1.00  0.00    -0.776 OA
HETATM    2  H   UNL     1      48.327 -15.712  -8.328  1.00  0.00     0.167 HD
ENDROOT
BRANCH   1   3
HETATM    3  C   UNL     1      48.495 -17.731  -8.207  1.00  0.00     0.139 C 
HETATM    4  O   UNL     1      47.509 -18.235  -7.688  1.00  0.00    -0.650 OA
BRANCH   3   5
HETATM    5  C   UNL     1      49.346 -18.536  -9.151  1.00  0.00     0.110 C 
BRANCH   5   6
HETATM    6  C   UNL     1      48.611 -19.773  -9.687  1.00  0.00     0.010 C 
BRANCH   6   7
HETATM    7  C   UNL     1      48.239 -19.633 -11.171  1.00  0.00     0.001 C 
BRANCH   7   8
HETATM    8  C   UNL     1      48.820 -18.346 -11.768  1.00  0.00     0.000 C 
BRANCH   8   9
HETATM    9  C   UNL     1      49.114 -18.525 -13.261  1.00  0.00     0.000 C 
BRANCH   9  10
HETATM   10  C   UNL     1      48.908 -19.983 -13.701  1.00  0.00     0.004 C 
BRANCH  10  11
HETATM   11  C   UNL     1      48.181 -20.074 -15.048  1.00  0.00     0.027 C 
BRANCH  11  12
HETATM   12  C   UNL     1      47.975 -18.704 -15.655  1.00  0.00    -0.030 C 
HETATM   13  C   UNL     1      46.877 -18.323 -16.333  1.00  0.00    -0.027 C 
BRANCH  13  14
HETATM   14  C   UNL     1      45.703 -19.230 -16.589  1.00  0.00     0.053 C 
BRANCH  14  15
HETATM   15  C   UNL     1      44.606 -18.481 -17.304  1.00  0.00    -0.027 C 
HETATM   16  C   UNL     1      44.515 -18.314 -18.640  1.00  0.00    -0.027 C 
BRANCH  16  17
HETATM   17  C   UNL     1      45.475 -18.872 -19.661  1.00  0.00     0.053 C 
BRANCH  17  18
HETATM   18  C   UNL     1      46.632 -17.926 -19.905  1.00  0.00    -0.027 C 
HETATM   19  C   UNL     1      47.912 -18.293 -20.113  1.00  0.00    -0.031 C 
BRANCH  19  20
HETATM   20  C   UNL     1      48.424 -19.711 -20.188  1.00  0.00     0.022 C 
HETATM   21  C   UNL     1      48.803 -20.262 -18.811  1.00  0.00     0.009 C 
ENDBRANCH  19  20
ENDBRANCH  17  18
ENDBRANCH  16  17
ENDBRANCH  14  15
ENDBRANCH  13  14
ENDBRANCH  11  12
ENDBRANCH  10  11
ENDBRANCH   9  10
ENDBRANCH   8   9
ENDBRANCH   7   8
ENDBRANCH   6   7
ENDBRANCH   5   6
ENDBRANCH   3   5
ENDBRANCH   1   3
TORSDOF 14
ENDMDL
MODEL 16
REMARK VINA RESULT:      -4.9      2.844      5.505
REMARK  14 active torsions:
REMARK  status: ('A' for Active; 'I' for Inactive)
REMARK    1  A    between atoms: O_1  and  C_11 
REMARK    2  A    between atoms: C_3  and  C_4 
REMARK    3  A    between atoms: C_3  and  C_5 
REMARK    4  A    between atoms: C_4  and  C_6 
REMARK    5  A    between atoms: C_5  and  C_7 
REMARK    6  A    between atoms: C_6  and  C_8 
REMARK    7  A    between atoms: C_7  and  C_9 
REMARK    8  A    between atoms: C_8  and  C_10 
REMARK    9  A    between atoms: C_9  and  C_11 
REMARK   10  A    between atoms: C_12  and  C_13 
REMARK   11  A    between atoms: C_13  and  C_14 
REMARK   12  A    between atoms: C_15  and  C_16 
REMARK   13  A    between atoms: C_16  and  C_17 
REMARK   14  A    between atoms: C_18  and  C_19 
ROOT
HETATM    1  O   UNL     1      27.012  11.547 -11.030  1.00  0.00    -0.776 OA
HETATM    2  H   UNL     1      27.801  12.062 -11.250  1.00  0.00     0.167 HD
ENDROOT
BRANCH   1   3
HETATM    3  C   UNL     1      26.059  11.292 -11.951  1.00  0.00     0.139 C 
HETATM    4  O   UNL     1      25.526  10.192 -11.994  1.00  0.00    -0.650 OA
BRANCH   3   5
HETATM    5  C   UNL     1      25.649  12.367 -12.920  1.00  0.00     0.110 C 
BRANCH   5   6
HETATM    6  C   UNL     1      24.136  12.370 -13.182  1.00  0.00     0.010 C 
BRANCH   6   7
HETATM    7  C   UNL     1      23.795  11.997 -14.633  1.00  0.00     0.001 C 
BRANCH   7   8
HETATM    8  C   UNL     1      25.066  11.827 -15.474  1.00  0.00     0.000 C 
BRANCH   8   9
HETATM    9  C   UNL     1      24.714  11.483 -16.925  1.00  0.00     0.000 C 
BRANCH   9  10
HETATM   10  C   UNL     1      25.524  12.334 -17.915  1.00  0.00     0.004 C 
BRANCH  10  11
HETATM   11  C   UNL     1      25.731  11.612 -19.251  1.00  0.00     0.027 C 
BRANCH  11  12
HETATM   12  C   UNL     1      27.188  11.270 -19.471  1.00  0.00    -0.030 C 
HETATM   13  C   UNL     1      28.148  12.163 -19.769  1.00  0.00    -0.027 C 
BRANCH  13  14
HETATM   14  C   UNL     1      27.890  13.637 -19.936  1.00  0.00     0.053 C 
BRANCH  14  15
HETATM   15  C   UNL     1      28.957  14.441 -19.237  1.00  0.00    -0.027 C 
HETATM   16  C   UNL     1      28.894  14.887 -17.965  1.00  0.00    -0.027 C 
BRANCH  16  17
HETATM   17  C   UNL     1      27.761  14.633 -17.002  1.00  0.00     0.053 C 
BRANCH  17  18
HETATM   18  C   UNL     1      28.279  14.252 -15.631  1.00  0.00    -0.027 C 
HETATM   19  C   UNL     1      28.657  13.014 -15.253  1.00  0.00    -0.031 C 
BRANCH  19  20
HETATM   20  C   UNL     1      28.679  11.789 -16.136  1.00  0.00     0.022 C 
HETATM   21  C   UNL     1      28.698  10.493 -15.323  1.00  0.00     0.009 C 
ENDBRANCH  19  20
ENDBRANCH  17  18
ENDBRANCH  16  17
ENDBRANCH  14  15
ENDBRANCH  13  14
ENDBRANCH  11  12
ENDBRANCH  10  11
ENDBRANCH   9  10
ENDBRANCH   8   9
ENDBRANCH   7   8
ENDBRANCH   6   7
ENDBRANCH   5   6
ENDBRANCH   3   5
ENDBRANCH   1   3
TORSDOF 14
ENDMDL
MODEL 17
REMARK VINA RESULT:      -4.9      8.470      9.399
REMARK  14 active torsions:
REMARK  status: ('A' for Active; 'I' for Inactive)
REMARK    1  A    between atoms: O_1  and  C_11 
REMARK    2  A    between atoms: C_3  and  C_4 
REMARK    3  A    between atoms: C_3  and  C_5 
REMARK    4  A    between atoms: C_4  and  C_6 
REMARK    5  A    between atoms: C_5  and  C_7 
REMARK    6  A    between atoms: C_6  and  C_8 
REMARK    7  A    between atoms: C_7  and  C_9 
REMARK    8  A    between atoms: C_8  and  C_10 
REMARK    9  A    between atoms: C_9  and  C_11 
REMARK   10  A    between atoms: C_12  and  C_13 
REMARK   11  A    between atoms: C_13  and  C_14 
REMARK   12  A    between atoms: C_15  and  C_16 
REMARK   13  A    between atoms: C_16  and  C_17 
REMARK   14  A    between atoms: C_18  and  C_19 
ROOT
HETATM    1  O   UNL     1      31.359   6.006  -9.839  1.00  0.00    -0.776 OA
HETATM    2  H   UNL     1      31.649   6.774  -9.327  1.00  0.00     0.167 HD
ENDROOT
BRANCH   1   3
HETATM    3  C   UNL     1      31.667   5.875 -11.146  1.00  0.00     0.139 C 
HETATM    4  O   UNL     1      32.528   5.082 -11.497  1.00  0.00    -0.650 OA
BRANCH   3   5
HETATM    5  C   UNL     1      30.940   6.701 -12.172  1.00  0.00     0.110 C 
BRANCH   5   6
HETATM    6  C   UNL     1      31.039   6.100 -13.581  1.00  0.00     0.010 C 
BRANCH   6   7
HETATM    7  C   UNL     1      31.988   6.896 -14.489  1.00  0.00     0.001 C 
BRANCH   7   8
HETATM    8  C   UNL     1      33.052   5.984 -15.112  1.00  0.00     0.000 C 
BRANCH   8   9
HETATM    9  C   UNL     1      33.166   6.233 -16.619  1.00  0.00     0.000 C 
BRANCH   9  10
HETATM   10  C   UNL     1      31.781   6.409 -17.263  1.00  0.00     0.004 C 
BRANCH  10  11
HETATM   11  C   UNL     1      31.677   7.728 -18.038  1.00  0.00     0.027 C 
BRANCH  11  12
HETATM   12  C   UNL     1      32.724   8.719 -17.580  1.00  0.00    -0.030 C 
HETATM   13  C   UNL     1      33.766   9.132 -18.324  1.00  0.00    -0.027 C 
BRANCH  13  14
HETATM   14  C   UNL     1      34.033   8.644 -19.723  1.00  0.00     0.053 C 
BRANCH  14  15
HETATM   15  C   UNL     1      34.907   7.415 -19.695  1.00  0.00    -0.027 C 
HETATM   16  C   UNL     1      34.745   6.322 -20.469  1.00  0.00    -0.027 C 
BRANCH  16  17
HETATM   17  C   UNL     1      33.683   6.145 -21.526  1.00  0.00     0.053 C 
BRANCH  17  18
HETATM   18  C   UNL     1      32.431   5.519 -20.949  1.00  0.00    -0.027 C 
HETATM   19  C   UNL     1      31.167   5.896 -21.228  1.00  0.00    -0.031 C 
BRANCH  19  20
HETATM   20  C   UNL     1      30.762   6.979 -22.199  1.00  0.00     0.022 C 
HETATM   21  C   UNL     1      30.756   8.365 -21.549  1.00  0.00     0.009 C 
ENDBRANCH  19  20
ENDBRANCH  17  18
ENDBRANCH  16  17
ENDBRANCH  14  15
ENDBRANCH  13  14
ENDBRANCH  11  12
ENDBRANCH  10  11
ENDBRANCH   9  10
ENDBRANCH   8   9
ENDBRANCH   7   8
ENDBRANCH   6   7
ENDBRANCH   5   6
ENDBRANCH   3   5
ENDBRANCH   1   3
TORSDOF 14
ENDMDL
MODEL 18
REMARK VINA RESULT:      -4.9      5.938      9.181
REMARK  14 active torsions:
REMARK  status: ('A' for Active; 'I' for Inactive)
REMARK    1  A    between atoms: O_1  and  C_11 
REMARK    2  A    between atoms: C_3  and  C_4 
REMARK    3  A    between atoms: C_3  and  C_5 
REMARK    4  A    between atoms: C_4  and  C_6 
REMARK    5  A    between atoms: C_5  and  C_7 
REMARK    6  A    between atoms: C_6  and  C_8 
REMARK    7  A    between atoms: C_7  and  C_9 
REMARK    8  A    between atoms: C_8  and  C_10 
REMARK    9  A    between atoms: C_9  and  C_11 
REMARK   10  A    between atoms: C_12  and  C_13 
REMARK   11  A    between atoms: C_13  and  C_14 
REMARK   12  A    between atoms: C_15  and  C_16 
REMARK   13  A    between atoms: C_16  and  C_17 
REMARK   14  A    between atoms: C_18  and  C_19 
ROOT
HETATM    1  O   UNL     1      32.777   5.620 -19.745  1.00  0.00    -0.776 OA
HETATM    2  H   UNL     1      33.529   6.201 -19.929  1.00  0.00     0.167 HD
ENDROOT
BRANCH   1   3
HETATM    3  C   UNL     1      31.509   6.081 -19.769  1.00  0.00     0.139 C 
HETATM    4  O   UNL     1      30.848   6.112 -18.741  1.00  0.00    -0.650 OA
BRANCH   3   5
HETATM    5  C   UNL     1      30.915   6.566 -21.063  1.00  0.00     0.110 C 
BRANCH   5   6
HETATM    6  C   UNL     1      31.189   8.057 -21.308  1.00  0.00     0.010 C 
BRANCH   6   7
HETATM    7  C   UNL     1      29.954   8.929 -21.035  1.00  0.00     0.001 C 
BRANCH   7   8
HETATM    8  C   UNL     1      30.110   9.713 -19.726  1.00  0.00     0.000 C 
BRANCH   8   9
HETATM    9  C   UNL     1      29.156  10.912 -19.695  1.00  0.00     0.000 C 
BRANCH   9  10
HETATM   10  C   UNL     1      28.876  11.441 -21.110  1.00  0.00     0.004 C 
BRANCH  10  11
HETATM   11  C   UNL     1      27.492  12.094 -21.211  1.00  0.00     0.027 C 
BRANCH  11  12
HETATM   12  C   UNL     1      26.408  11.057 -21.404  1.00  0.00    -0.030 C 
HETATM   13  C   UNL     1      25.175  11.129 -20.871  1.00  0.00    -0.027 C 
BRANCH  13  14
HETATM   14  C   UNL     1      24.715  12.260 -19.990  1.00  0.00     0.053 C 
BRANCH  14  15
HETATM   15  C   UNL     1      23.976  11.725 -18.789  1.00  0.00    -0.027 C 
HETATM   16  C   UNL     1      24.550  11.202 -17.686  1.00  0.00    -0.027 C 
BRANCH  16  17
HETATM   17  C   UNL     1      26.034  11.088 -17.440  1.00  0.00     0.053 C 
BRANCH  17  18
HETATM   18  C   UNL     1      26.500  12.093 -16.407  1.00  0.00    -0.027 C 
HETATM   19  C   UNL     1      27.131  13.253 -16.674  1.00  0.00    -0.031 C 
BRANCH  19  20
HETATM   20  C   UNL     1      27.451  13.790 -18.048  1.00  0.00     0.022 C 
HETATM   21  C   UNL     1      28.744  14.607 -18.063  1.00  0.00     0.009 C 
ENDBRANCH  19  20
ENDBRANCH  17  18
ENDBRANCH  16  17
ENDBRANCH  14  15
ENDBRANCH  13  14
ENDBRANCH  11  12
ENDBRANCH  10  11
ENDBRANCH   9  10
ENDBRANCH   8   9
ENDBRANCH   7   8
ENDBRANCH   6   7
ENDBRANCH   5   6
ENDBRANCH   3   5
ENDBRANCH   1   3
TORSDOF 14
ENDMDL
MODEL 19
REMARK VINA RESULT:      -4.9      9.306     12.400
REMARK  14 active torsions:
REMARK  status: ('A' for Active; 'I' for Inactive)
REMARK    1  A    between atoms: O_1  and  C_11 
REMARK    2  A    between atoms: C_3  and  C_4 
REMARK    3  A    between atoms: C_3  and  C_5 
REMARK    4  A    between atoms: C_4  and  C_6 
REMARK    5  A    between atoms: C_5  and  C_7 
REMARK    6  A    between atoms: C_6  and  C_8 
REMARK    7  A    between atoms: C_7  and  C_9 
REMARK    8  A    between atoms: C_8  and  C_10 
REMARK    9  A    between atoms: C_9  and  C_11 
REMARK   10  A    between atoms: C_12  and  C_13 
REMARK   11  A    between atoms: C_13  and  C_14 
REMARK   12  A    between atoms: C_15  and  C_16 
REMARK   13  A    between atoms: C_16  and  C_17 
REMARK   14  A    between atoms: C_18  and  C_19 
ROOT
HETATM    1  O   UNL     1      34.694   8.577 -18.998  1.00  0.00    -0.776 OA
HETATM    2  H   UNL     1      34.560   9.486 -19.303  1.00  0.00     0.167 HD
ENDROOT
BRANCH   1   3
HETATM    3  C   UNL     1      34.680   7.537 -19.858  1.00  0.00     0.139 C 
HETATM    4  O   UNL     1      35.677   6.844 -19.999  1.00  0.00    -0.650 OA
BRANCH   3   5
HETATM    5  C   UNL     1      33.431   7.228 -20.636  1.00  0.00     0.110 C 
BRANCH   5   6
HETATM    6  C   UNL     1      32.758   5.930 -20.166  1.00  0.00     0.010 C 
BRANCH   6   7
HETATM    7  C   UNL     1      31.306   6.155 -19.717  1.00  0.00     0.001 C 
BRANCH   7   8
HETATM    8  C   UNL     1      31.136   7.534 -19.067  1.00  0.00     0.000 C 
BRANCH   8   9
HETATM    9  C   UNL     1      31.290   7.440 -17.546  1.00  0.00     0.000 C 
BRANCH   9  10
HETATM   10  C   UNL     1      31.133   5.991 -17.056  1.00  0.00     0.004 C 
BRANCH  10  11
HETATM   11  C   UNL     1      32.293   5.569 -16.147  1.00  0.00     0.027 C 
BRANCH  11  12
HETATM   12  C   UNL     1      33.609   6.131 -16.637  1.00  0.00    -0.030 C 
HETATM   13  C   UNL     1      34.577   6.620 -15.842  1.00  0.00    -0.027 C 
BRANCH  13  14
HETATM   14  C   UNL     1      34.468   6.683 -14.341  1.00  0.00     0.053 C 
BRANCH  14  15
HETATM   15  C   UNL     1      34.574   8.111 -13.865  1.00  0.00    -0.027 C 
HETATM   16  C   UNL     1      33.562   9.002 -13.834  1.00  0.00    -0.027 C 
BRANCH  16  17
HETATM   17  C   UNL     1      32.136   8.726 -14.239  1.00  0.00     0.053 C 
BRANCH  17  18
HETATM   18  C   UNL     1      31.220   8.682 -13.034  1.00  0.00    -0.027 C 
HETATM   19  C   UNL     1      30.734   7.562 -12.462  1.00  0.00    -0.031 C 
BRANCH  19  20
HETATM   20  C   UNL     1      31.045   6.147 -12.883  1.00  0.00     0.022 C 
HETATM   21  C   UNL     1      31.994   5.449 -11.907  1.00  0.00     0.009 C 
ENDBRANCH  19  20
ENDBRANCH  17  18
ENDBRANCH  16  17
ENDBRANCH  14  15
ENDBRANCH  13  14
ENDBRANCH  11  12
ENDBRANCH  10  11
ENDBRANCH   9  10
ENDBRANCH   8   9
ENDBRANCH   7   8
ENDBRANCH   6   7
ENDBRANCH   5   6
ENDBRANCH   3   5
ENDBRANCH   1   3
TORSDOF 14
ENDMDL
MODEL 20
REMARK VINA RESULT:      -4.8     38.466     40.372
REMARK  14 active torsions:
REMARK  status: ('A' for Active; 'I' for Inactive)
REMARK    1  A    between atoms: O_1  and  C_11 
REMARK    2  A    between atoms: C_3  and  C_4 
REMARK    3  A    between atoms: C_3  and  C_5 
REMARK    4  A    between atoms: C_4  and  C_6 
REMARK    5  A    between atoms: C_5  and  C_7 
REMARK    6  A    between atoms: C_6  and  C_8 
REMARK    7  A    between atoms: C_7  and  C_9 
REMARK    8  A    between atoms: C_8  and  C_10 
REMARK    9  A    between atoms: C_9  and  C_11 
REMARK   10  A    between atoms: C_12  and  C_13 
REMARK   11  A    between atoms: C_13  and  C_14 
REMARK   12  A    between atoms: C_15  and  C_16 
REMARK   13  A    between atoms: C_16  and  C_17 
REMARK   14  A    between atoms: C_18  and  C_19 
ROOT
HETATM    1  O   UNL     1      49.151 -17.752 -16.724  1.00  0.00    -0.776 OA
HETATM    2  H   UNL     1      49.036 -17.969 -17.660  1.00  0.00     0.167 HD
ENDROOT
BRANCH   1   3
HETATM    3  C   UNL     1      48.724 -18.585 -15.751  1.00  0.00     0.139 C 
HETATM    4  O   UNL     1      47.668 -19.187 -15.879  1.00  0.00    -0.650 OA
BRANCH   3   5
HETATM    5  C   UNL     1      49.556 -18.776 -14.513  1.00  0.00     0.110 C 
BRANCH   5   6
HETATM    6  C   UNL     1      48.808 -19.557 -13.423  1.00  0.00     0.010 C 
BRANCH   6   7
HETATM    7  C   UNL     1      48.200 -18.633 -12.357  1.00  0.00     0.001 C 
BRANCH   7   8
HETATM    8  C   UNL     1      46.898 -19.217 -11.796  1.00  0.00     0.000 C 
BRANCH   8   9
HETATM    9  C   UNL     1      46.984 -19.372 -10.274  1.00  0.00     0.000 C 
BRANCH   9  10
HETATM   10  C   UNL     1      47.892 -20.548  -9.882  1.00  0.00     0.004 C 
BRANCH  10  11
HETATM   11  C   UNL     1      48.800 -20.197  -8.698  1.00  0.00     0.027 C 
BRANCH  11  12
HETATM   12  C   UNL     1      49.092 -18.714  -8.650  1.00  0.00    -0.030 C 
HETATM   13  C   UNL     1      48.817 -17.911  -7.606  1.00  0.00    -0.027 C 
BRANCH  13  14
HETATM   14  C   UNL     1      48.163 -18.392  -6.338  1.00  0.00     0.053 C 
BRANCH  14  15
HETATM   15  C   UNL     1      49.202 -18.661  -5.278  1.00  0.00    -0.027 C 
HETATM   16  C   UNL     1      49.104 -19.591  -4.306  1.00  0.00    -0.027 C 
BRANCH  16  17
HETATM   17  C   UNL     1      47.956 -20.551  -4.122  1.00  0.00     0.053 C 
BRANCH  17  18
HETATM   18  C   UNL     1      47.920 -21.586  -5.227  1.00  0.00    -0.027 C 
HETATM   19  C   UNL     1      46.859 -21.854  -6.014  1.00  0.00    -0.031 C 
BRANCH  19  20
HETATM   20  C   UNL     1      45.527 -21.145  -5.972  1.00  0.00     0.022 C 
HETATM   21  C   UNL     1      45.175 -20.498  -7.314  1.00  0.00     0.009 C 
ENDBRANCH  19  20
ENDBRANCH  17  18
ENDBRANCH  16  17
ENDBRANCH  14  15
ENDBRANCH  13  14
ENDBRANCH  11  12
ENDBRANCH  10  11
ENDBRANCH   9  10
ENDBRANCH   8   9
ENDBRANCH   7   8
ENDBRANCH   6   7
ENDBRANCH   5   6
ENDBRANCH   3   5
ENDBRANCH   1   3
TORSDOF 14
ENDMDL
