MODEL 1
REMARK VINA RESULT:      -5.9      0.000      0.000
REMARK  13 active torsions:
REMARK  status: ('A' for Active; 'I' for Inactive)
REMARK    1  A    between atoms: O_1  and  C_16 
REMARK    2  A    between atoms: C_3  and  C_4 
REMARK    3  A    between atoms: C_3  and  C_5 
REMARK    4  A    between atoms: C_4  and  C_6 
REMARK    5  A    between atoms: C_5  and  C_7 
REMARK    6  A    between atoms: C_6  and  C_8 
REMARK    7  A    between atoms: C_7  and  C_9 
REMARK    8  A    between atoms: C_8  and  C_10 
REMARK    9  A    between atoms: C_9  and  C_11 
REMARK   10  A    between atoms: C_10  and  C_12 
REMARK   11  A    between atoms: C_11  and  C_13 
REMARK   12  A    between atoms: C_12  and  C_14 
REMARK   13  A    between atoms: C_14  and  C_16 
ROOT
HETATM    1  O   UNL     1       3.382   9.808 -23.080  1.00  0.00    -0.776 OA
HETATM    2  H   UNL     1       2.671   9.820 -23.737  1.00  0.00     0.167 HD
ENDROOT
BRANCH   1   3
HETATM    3  C   UNL     1       3.294   9.064 -21.958  1.00  0.00     0.139 C 
HETATM    4  O   UNL     1       3.447   7.852 -22.020  1.00  0.00    -0.650 OA
BRANCH   3   5
HETATM    5  C   UNL     1       3.007   9.749 -20.647  1.00  0.00     0.110 C 
BRANCH   5   6
HETATM    6  C   UNL     1       3.654   9.046 -19.445  1.00  0.00     0.010 C 
BRANCH   6   7
HETATM    7  C   UNL     1       3.615   9.938 -18.199  1.00  0.00     0.001 C 
BRANCH   7   8
HETATM    8  C   UNL     1       4.039   9.158 -16.949  1.00  0.00     0.000 C 
BRANCH   8   9
HETATM    9  C   UNL     1       3.117   9.471 -15.765  1.00  0.00     0.000 C 
BRANCH   9  10
HETATM   10  C   UNL     1       3.847   9.275 -14.431  1.00  0.00     0.000 C 
BRANCH  10  11
HETATM   11  C   UNL     1       3.084   9.942 -13.282  1.00  0.00     0.000 C 
BRANCH  11  12
HETATM   12  C   UNL     1       3.020   9.023 -12.056  1.00  0.00     0.000 C 
BRANCH  12  13
HETATM   13  C   UNL     1       4.117   9.377 -11.045  1.00  0.00     0.000 C 
BRANCH  13  14
HETATM   14  C   UNL     1       3.564   9.394  -9.615  1.00  0.00     0.000 C 
BRANCH  14  15
HETATM   15  C   UNL     1       4.596   9.958  -8.632  1.00  0.00    -0.000 C 
BRANCH  15  16
HETATM   16  C   UNL     1       4.441   9.320  -7.247  1.00  0.00    -0.005 C 
HETATM   17  C   UNL     1       3.217   8.409  -7.194  1.00  0.00     0.005 C 
ENDBRANCH  15  16
ENDBRANCH  14  15
ENDBRANCH  13  14
ENDBRANCH  12  13
ENDBRANCH  11  12
ENDBRANCH  10  11
ENDBRANCH   9  10
ENDBRANCH   8   9
ENDBRANCH   7   8
ENDBRANCH   6   7
ENDBRANCH   5   6
ENDBRANCH   3   5
ENDBRANCH   1   3
TORSDOF 13
ENDMDL
MODEL 2
REMARK VINA RESULT:      -5.9      1.159      1.997
REMARK  13 active torsions:
REMARK  status: ('A' for Active; 'I' for Inactive)
REMARK    1  A    between atoms: O_1  and  C_16 
REMARK    2  A    between atoms: C_3  and  C_4 
REMARK    3  A    between atoms: C_3  and  C_5 
REMARK    4  A    between atoms: C_4  and  C_6 
REMARK    5  A    between atoms: C_5  and  C_7 
REMARK    6  A    between atoms: C_6  and  C_8 
REMARK    7  A    between atoms: C_7  and  C_9 
REMARK    8  A    between atoms: C_8  and  C_10 
REMARK    9  A    between atoms: C_9  and  C_11 
REMARK   10  A    between atoms: C_10  and  C_12 
REMARK   11  A    between atoms: C_11  and  C_13 
REMARK   12  A    between atoms: C_12  and  C_14 
REMARK   13  A    between atoms: C_14  and  C_16 
ROOT
HETATM    1  O   UNL     1       5.224   9.880 -22.933  1.00  0.00    -0.776 OA
HETATM    2  H   UNL     1       5.752  10.500 -23.456  1.00  0.00     0.167 HD
ENDROOT
BRANCH   1   3
HETATM    3  C   UNL     1       3.919   9.665 -23.201  1.00  0.00     0.139 C 
HETATM    4  O   UNL     1       3.491   9.862 -24.329  1.00  0.00    -0.650 OA
BRANCH   3   5
HETATM    5  C   UNL     1       3.016   9.183 -22.095  1.00  0.00     0.110 C 
BRANCH   5   6
HETATM    6  C   UNL     1       3.764   8.909 -20.782  1.00  0.00     0.010 C 
BRANCH   6   7
HETATM    7  C   UNL     1       3.134   9.682 -19.618  1.00  0.00     0.001 C 
BRANCH   7   8
HETATM    8  C   UNL     1       4.088   9.747 -18.419  1.00  0.00     0.000 C 
BRANCH   8   9
HETATM    9  C   UNL     1       3.661   8.766 -17.321  1.00  0.00     0.000 C 
BRANCH   9  10
HETATM   10  C   UNL     1       2.932   9.494 -16.186  1.00  0.00     0.000 C 
BRANCH  10  11
HETATM   11  C   UNL     1       3.414   9.000 -14.816  1.00  0.00     0.000 C 
BRANCH  11  12
HETATM   12  C   UNL     1       3.347  10.120 -13.772  1.00  0.00     0.000 C 
BRANCH  12  13
HETATM   13  C   UNL     1       4.518  10.026 -12.787  1.00  0.00     0.000 C 
BRANCH  13  14
HETATM   14  C   UNL     1       4.376   8.798 -11.879  1.00  0.00     0.000 C 
BRANCH  14  15
HETATM   15  C   UNL     1       3.307   9.028 -10.805  1.00  0.00    -0.000 C 
BRANCH  15  16
HETATM   16  C   UNL     1       3.888   9.783  -9.604  1.00  0.00    -0.005 C 
HETATM   17  C   UNL     1       3.405   9.178  -8.288  1.00  0.00     0.005 C 
ENDBRANCH  15  16
ENDBRANCH  14  15
ENDBRANCH  13  14
ENDBRANCH  12  13
ENDBRANCH  11  12
ENDBRANCH  10  11
ENDBRANCH   9  10
ENDBRANCH   8   9
ENDBRANCH   7   8
ENDBRANCH   6   7
ENDBRANCH   5   6
ENDBRANCH   3   5
ENDBRANCH   1   3
TORSDOF 13
ENDMDL
MODEL 3
REMARK VINA RESULT:      -5.6     13.464     13.882
REMARK  13 active torsions:
REMARK  status: ('A' for Active; 'I' for Inactive)
REMARK    1  A    between atoms: O_1  and  C_16 
REMARK    2  A    between atoms: C_3  and  C_4 
REMARK    3  A    between atoms: C_3  and  C_5 
REMARK    4  A    between atoms: C_4  and  C_6 
REMARK    5  A    between atoms: C_5  and  C_7 
REMARK    6  A    between atoms: C_6  and  C_8 
REMARK    7  A    between atoms: C_7  and  C_9 
REMARK    8  A    between atoms: C_8  and  C_10 
REMARK    9  A    between atoms: C_9  and  C_11 
REMARK   10  A    between atoms: C_10  and  C_12 
REMARK   11  A    between atoms: C_11  and  C_13 
REMARK   12  A    between atoms: C_12  and  C_14 
REMARK   13  A    between atoms: C_14  and  C_16 
ROOT
HETATM    1  O   UNL     1      10.250  -2.817 -22.696  1.00  0.00    -0.776 OA
HETATM    2  H   UNL     1      10.275  -3.764 -22.495  1.00  0.00     0.167 HD
ENDROOT
BRANCH   1   3
HETATM    3  C   UNL     1      11.351  -2.153 -23.102  1.00  0.00     0.139 C 
HETATM    4  O   UNL     1      11.644  -2.130 -24.289  1.00  0.00    -0.650 OA
BRANCH   3   5
HETATM    5  C   UNL     1      12.199  -1.449 -22.074  1.00  0.00     0.110 C 
BRANCH   5   6
HETATM    6  C   UNL     1      11.419  -1.066 -20.808  1.00  0.00     0.010 C 
BRANCH   6   7
HETATM    7  C   UNL     1      11.986  -1.781 -19.575  1.00  0.00     0.001 C 
BRANCH   7   8
HETATM    8  C   UNL     1      10.883  -2.066 -18.549  1.00  0.00     0.000 C 
BRANCH   8   9
HETATM    9  C   UNL     1      11.481  -2.441 -17.188  1.00  0.00     0.000 C 
BRANCH   9  10
HETATM   10  C   UNL     1      11.748  -1.192 -16.340  1.00  0.00     0.000 C 
BRANCH  10  11
HETATM   11  C   UNL     1      12.177  -1.572 -14.918  1.00  0.00     0.000 C 
BRANCH  11  12
HETATM   12  C   UNL     1      10.959  -1.892 -14.043  1.00  0.00     0.000 C 
BRANCH  12  13
HETATM   13  C   UNL     1      11.390  -2.471 -12.691  1.00  0.00     0.000 C 
BRANCH  13  14
HETATM   14  C   UNL     1      12.240  -1.465 -11.906  1.00  0.00     0.000 C 
BRANCH  14  15
HETATM   15  C   UNL     1      12.541  -1.980 -10.494  1.00  0.00    -0.000 C 
BRANCH  15  16
HETATM   16  C   UNL     1      11.323  -1.814  -9.578  1.00  0.00    -0.005 C 
HETATM   17  C   UNL     1      11.736  -1.812  -8.108  1.00  0.00     0.005 C 
ENDBRANCH  15  16
ENDBRANCH  14  15
ENDBRANCH  13  14
ENDBRANCH  12  13
ENDBRANCH  11  12
ENDBRANCH  10  11
ENDBRANCH   9  10
ENDBRANCH   8   9
ENDBRANCH   7   8
ENDBRANCH   6   7
ENDBRANCH   5   6
ENDBRANCH   3   5
ENDBRANCH   1   3
TORSDOF 13
ENDMDL
MODEL 4
REMARK VINA RESULT:      -5.5     13.494     13.792
REMARK  13 active torsions:
REMARK  status: ('A' for Active; 'I' for Inactive)
REMARK    1  A    between atoms: O_1  and  C_16 
REMARK    2  A    between atoms: C_3  and  C_4 
REMARK    3  A    between atoms: C_3  and  C_5 
REMARK    4  A    between atoms: C_4  and  C_6 
REMARK    5  A    between atoms: C_5  and  C_7 
REMARK    6  A    between atoms: C_6  and  C_8 
REMARK    7  A    between atoms: C_7  and  C_9 
REMARK    8  A    between atoms: C_8  and  C_10 
REMARK    9  A    between atoms: C_9  and  C_11 
REMARK   10  A    between atoms: C_10  and  C_12 
REMARK   11  A    between atoms: C_11  and  C_13 
REMARK   12  A    between atoms: C_12  and  C_14 
REMARK   13  A    between atoms: C_14  and  C_16 
ROOT
HETATM    1  O   UNL     1      12.928  -1.014 -21.747  1.00  0.00    -0.776 OA
HETATM    2  H   UNL     1      13.038  -0.052 -21.727  1.00  0.00     0.167 HD
ENDROOT
BRANCH   1   3
HETATM    3  C   UNL     1      11.944  -1.626 -21.057  1.00  0.00     0.139 C 
HETATM    4  O   UNL     1      11.042  -2.193 -21.658  1.00  0.00    -0.650 OA
BRANCH   3   5
HETATM    5  C   UNL     1      11.980  -1.596 -19.551  1.00  0.00     0.110 C 
BRANCH   5   6
HETATM    6  C   UNL     1      10.798  -2.334 -18.904  1.00  0.00     0.010 C 
BRANCH   6   7
HETATM    7  C   UNL     1      10.769  -2.104 -17.389  1.00  0.00     0.001 C 
BRANCH   7   8
HETATM    8  C   UNL     1      12.063  -1.437 -16.908  1.00  0.00     0.000 C 
BRANCH   8   9
HETATM    9  C   UNL     1      12.465  -1.952 -15.521  1.00  0.00     0.000 C 
BRANCH   9  10
HETATM   10  C   UNL     1      11.441  -1.532 -14.459  1.00  0.00     0.000 C 
BRANCH  10  11
HETATM   11  C   UNL     1      11.695  -2.257 -13.133  1.00  0.00     0.000 C 
BRANCH  11  12
HETATM   12  C   UNL     1      11.665  -1.276 -11.954  1.00  0.00     0.000 C 
BRANCH  12  13
HETATM   13  C   UNL     1      12.111  -1.960 -10.657  1.00  0.00     0.000 C 
BRANCH  13  14
HETATM   14  C   UNL     1      11.367  -1.384  -9.447  1.00  0.00     0.000 C 
BRANCH  14  15
HETATM   15  C   UNL     1      11.319  -2.397  -8.297  1.00  0.00    -0.000 C 
BRANCH  15  16
HETATM   16  C   UNL     1      11.126  -1.690  -6.950  1.00  0.00    -0.005 C 
HETATM   17  C   UNL     1      12.344  -1.880  -6.049  1.00  0.00     0.005 C 
ENDBRANCH  15  16
ENDBRANCH  14  15
ENDBRANCH  13  14
ENDBRANCH  12  13
ENDBRANCH  11  12
ENDBRANCH  10  11
ENDBRANCH   9  10
ENDBRANCH   8   9
ENDBRANCH   7   8
ENDBRANCH   6   7
ENDBRANCH   5   6
ENDBRANCH   3   5
ENDBRANCH   1   3
TORSDOF 13
ENDMDL
MODEL 5
REMARK VINA RESULT:      -5.2     21.907     23.899
REMARK  13 active torsions:
REMARK  status: ('A' for Active; 'I' for Inactive)
REMARK    1  A    between atoms: O_1  and  C_16 
REMARK    2  A    between atoms: C_3  and  C_4 
REMARK    3  A    between atoms: C_3  and  C_5 
REMARK    4  A    between atoms: C_4  and  C_6 
REMARK    5  A    between atoms: C_5  and  C_7 
REMARK    6  A    between atoms: C_6  and  C_8 
REMARK    7  A    between atoms: C_7  and  C_9 
REMARK    8  A    between atoms: C_8  and  C_10 
REMARK    9  A    between atoms: C_9  and  C_11 
REMARK   10  A    between atoms: C_10  and  C_12 
REMARK   11  A    between atoms: C_11  and  C_13 
REMARK   12  A    between atoms: C_12  and  C_14 
REMARK   13  A    between atoms: C_14  and  C_16 
ROOT
HETATM    1  O   UNL     1      25.644  13.046  -8.170  1.00  0.00    -0.776 OA
HETATM    2  H   UNL     1      26.451  12.944  -7.645  1.00  0.00     0.167 HD
ENDROOT
BRANCH   1   3
HETATM    3  C   UNL     1      24.856  11.992  -8.464  1.00  0.00     0.139 C 
HETATM    4  O   UNL     1      24.539  11.206  -7.582  1.00  0.00    -0.650 OA
BRANCH   3   5
HETATM    5  C   UNL     1      24.381  11.808  -9.882  1.00  0.00     0.110 C 
BRANCH   5   6
HETATM    6  C   UNL     1      25.497  11.996 -10.921  1.00  0.00     0.010 C 
BRANCH   6   7
HETATM    7  C   UNL     1      25.193  11.211 -12.203  1.00  0.00     0.001 C 
BRANCH   7   8
HETATM    8  C   UNL     1      24.255  12.001 -13.123  1.00  0.00     0.000 C 
BRANCH   8   9
HETATM    9  C   UNL     1      24.961  12.392 -14.426  1.00  0.00     0.000 C 
BRANCH   9  10
HETATM   10  C   UNL     1      25.948  11.304 -14.865  1.00  0.00     0.000 C 
BRANCH  10  11
HETATM   11  C   UNL     1      25.749  10.944 -16.342  1.00  0.00     0.000 C 
BRANCH  11  12
HETATM   12  C   UNL     1      24.743  11.889 -17.009  1.00  0.00     0.000 C 
BRANCH  12  13
HETATM   13  C   UNL     1      24.373  11.398 -18.413  1.00  0.00     0.000 C 
BRANCH  13  14
HETATM   14  C   UNL     1      25.178  12.139 -19.486  1.00  0.00     0.000 C 
BRANCH  14  15
HETATM   15  C   UNL     1      24.465  12.088 -20.843  1.00  0.00    -0.000 C 
BRANCH  15  16
HETATM   16  C   UNL     1      25.218  11.184 -21.825  1.00  0.00    -0.005 C 
HETATM   17  C   UNL     1      26.723  11.434 -21.762  1.00  0.00     0.005 C 
ENDBRANCH  15  16
ENDBRANCH  14  15
ENDBRANCH  13  14
ENDBRANCH  12  13
ENDBRANCH  11  12
ENDBRANCH  10  11
ENDBRANCH   9  10
ENDBRANCH   8   9
ENDBRANCH   7   8
ENDBRANCH   6   7
ENDBRANCH   5   6
ENDBRANCH   3   5
ENDBRANCH   1   3
TORSDOF 13
ENDMDL
MODEL 6
REMARK VINA RESULT:      -5.1     21.488     22.040
REMARK  13 active torsions:
REMARK  status: ('A' for Active; 'I' for Inactive)
REMARK    1  A    between atoms: O_1  and  C_16 
REMARK    2  A    between atoms: C_3  and  C_4 
REMARK    3  A    between atoms: C_3  and  C_5 
REMARK    4  A    between atoms: C_4  and  C_6 
REMARK    5  A    between atoms: C_5  and  C_7 
REMARK    6  A    between atoms: C_6  and  C_8 
REMARK    7  A    between atoms: C_7  and  C_9 
REMARK    8  A    between atoms: C_8  and  C_10 
REMARK    9  A    between atoms: C_9  and  C_11 
REMARK   10  A    between atoms: C_10  and  C_12 
REMARK   11  A    between atoms: C_11  and  C_13 
REMARK   12  A    between atoms: C_12  and  C_14 
REMARK   13  A    between atoms: C_14  and  C_16 
ROOT
HETATM    1  O   UNL     1      25.932  11.146 -20.431  1.00  0.00    -0.776 OA
HETATM    2  H   UNL     1      25.922  10.191 -20.592  1.00  0.00     0.167 HD
ENDROOT
BRANCH   1   3
HETATM    3  C   UNL     1      24.791  11.859 -20.344  1.00  0.00     0.139 C 
HETATM    4  O   UNL     1      24.451  12.576 -21.275  1.00  0.00    -0.650 OA
BRANCH   3   5
HETATM    5  C   UNL     1      23.957  11.754 -19.093  1.00  0.00     0.110 C 
BRANCH   5   6
HETATM    6  C   UNL     1      24.481  12.627 -17.944  1.00  0.00     0.010 C 
BRANCH   6   7
HETATM    7  C   UNL     1      24.683  11.797 -16.671  1.00  0.00     0.001 C 
BRANCH   7   8
HETATM    8  C   UNL     1      25.902  10.876 -16.802  1.00  0.00     0.000 C 
BRANCH   8   9
HETATM    9  C   UNL     1      27.097  11.430 -16.017  1.00  0.00     0.000 C 
BRANCH   9  10
HETATM   10  C   UNL     1      26.677  12.610 -15.134  1.00  0.00     0.000 C 
BRANCH  10  11
HETATM   11  C   UNL     1      27.491  12.643 -13.835  1.00  0.00     0.000 C 
BRANCH  11  12
HETATM   12  C   UNL     1      26.571  12.680 -12.609  1.00  0.00     0.000 C 
BRANCH  12  13
HETATM   13  C   UNL     1      25.881  11.327 -12.398  1.00  0.00     0.000 C 
BRANCH  13  14
HETATM   14  C   UNL     1      24.687  11.460 -11.445  1.00  0.00     0.000 C 
BRANCH  14  15
HETATM   15  C   UNL     1      25.156  11.731 -10.010  1.00  0.00    -0.000 C 
BRANCH  15  16
HETATM   16  C   UNL     1      23.995  11.598  -9.018  1.00  0.00    -0.005 C 
HETATM   17  C   UNL     1      24.250  12.420  -7.758  1.00  0.00     0.005 C 
ENDBRANCH  15  16
ENDBRANCH  14  15
ENDBRANCH  13  14
ENDBRANCH  12  13
ENDBRANCH  11  12
ENDBRANCH  10  11
ENDBRANCH   9  10
ENDBRANCH   8   9
ENDBRANCH   7   8
ENDBRANCH   6   7
ENDBRANCH   5   6
ENDBRANCH   3   5
ENDBRANCH   1   3
TORSDOF 13
ENDMDL
MODEL 7
REMARK VINA RESULT:      -5.1     13.692     14.407
REMARK  13 active torsions:
REMARK  status: ('A' for Active; 'I' for Inactive)
REMARK    1  A    between atoms: O_1  and  C_16 
REMARK    2  A    between atoms: C_3  and  C_4 
REMARK    3  A    between atoms: C_3  and  C_5 
REMARK    4  A    between atoms: C_4  and  C_6 
REMARK    5  A    between atoms: C_5  and  C_7 
REMARK    6  A    between atoms: C_6  and  C_8 
REMARK    7  A    between atoms: C_7  and  C_9 
REMARK    8  A    between atoms: C_8  and  C_10 
REMARK    9  A    between atoms: C_9  and  C_11 
REMARK   10  A    between atoms: C_10  and  C_12 
REMARK   11  A    between atoms: C_11  and  C_13 
REMARK   12  A    between atoms: C_12  and  C_14 
REMARK   13  A    between atoms: C_14  and  C_16 
ROOT
HETATM    1  O   UNL     1       9.918  -1.879 -17.496  1.00  0.00    -0.776 OA
HETATM    2  H   UNL     1       9.731  -1.370 -18.298  1.00  0.00     0.167 HD
ENDROOT
BRANCH   1   3
HETATM    3  C   UNL     1      11.175  -2.236 -17.164  1.00  0.00     0.139 C 
HETATM    4  O   UNL     1      11.632  -3.297 -17.568  1.00  0.00    -0.650 OA
BRANCH   3   5
HETATM    5  C   UNL     1      11.992  -1.313 -16.298  1.00  0.00     0.110 C 
BRANCH   5   6
HETATM    6  C   UNL     1      12.159  -1.826 -14.859  1.00  0.00     0.010 C 
BRANCH   6   7
HETATM    7  C   UNL     1      10.810  -2.251 -14.268  1.00  0.00     0.001 C 
BRANCH   7   8
HETATM    8  C   UNL     1      10.814  -2.123 -12.740  1.00  0.00     0.000 C 
BRANCH   8   9
HETATM    9  C   UNL     1      12.015  -1.300 -12.260  1.00  0.00     0.000 C 
BRANCH   9  10
HETATM   10  C   UNL     1      12.553  -1.838 -10.928  1.00  0.00     0.000 C 
BRANCH  10  11
HETATM   11  C   UNL     1      11.757  -1.275  -9.745  1.00  0.00     0.000 C 
BRANCH  11  12
HETATM   12  C   UNL     1      11.838  -2.211  -8.533  1.00  0.00     0.000 C 
BRANCH  12  13
HETATM   13  C   UNL     1      12.310  -1.455  -7.285  1.00  0.00     0.000 C 
BRANCH  13  14
HETATM   14  C   UNL     1      11.980  -2.238  -6.009  1.00  0.00     0.000 C 
BRANCH  14  15
HETATM   15  C   UNL     1      11.488  -1.302  -4.899  1.00  0.00    -0.000 C 
BRANCH  15  16
HETATM   16  C   UNL     1      11.940  -1.799  -3.521  1.00  0.00    -0.005 C 
HETATM   17  C   UNL     1      10.824  -2.573  -2.822  1.00  0.00     0.005 C 
ENDBRANCH  15  16
ENDBRANCH  14  15
ENDBRANCH  13  14
ENDBRANCH  12  13
ENDBRANCH  11  12
ENDBRANCH  10  11
ENDBRANCH   9  10
ENDBRANCH   8   9
ENDBRANCH   7   8
ENDBRANCH   6   7
ENDBRANCH   5   6
ENDBRANCH   3   5
ENDBRANCH   1   3
TORSDOF 13
ENDMDL
MODEL 8
REMARK VINA RESULT:      -5.0     21.490     22.403
REMARK  13 active torsions:
REMARK  status: ('A' for Active; 'I' for Inactive)
REMARK    1  A    between atoms: O_1  and  C_16 
REMARK    2  A    between atoms: C_3  and  C_4 
REMARK    3  A    between atoms: C_3  and  C_5 
REMARK    4  A    between atoms: C_4  and  C_6 
REMARK    5  A    between atoms: C_5  and  C_7 
REMARK    6  A    between atoms: C_6  and  C_8 
REMARK    7  A    between atoms: C_7  and  C_9 
REMARK    8  A    between atoms: C_8  and  C_10 
REMARK    9  A    between atoms: C_9  and  C_11 
REMARK   10  A    between atoms: C_10  and  C_12 
REMARK   11  A    between atoms: C_11  and  C_13 
REMARK   12  A    between atoms: C_12  and  C_14 
REMARK   13  A    between atoms: C_14  and  C_16 
ROOT
HETATM    1  O   UNL     1      27.536  13.915 -16.024  1.00  0.00    -0.776 OA
HETATM    2  H   UNL     1      27.950  13.757 -16.884  1.00  0.00     0.167 HD
ENDROOT
BRANCH   1   3
HETATM    3  C   UNL     1      27.008  12.907 -15.299  1.00  0.00     0.139 C 
HETATM    4  O   UNL     1      27.553  12.558 -14.261  1.00  0.00    -0.650 OA
BRANCH   3   5
HETATM    5  C   UNL     1      25.753  12.233 -15.788  1.00  0.00     0.110 C 
BRANCH   5   6
HETATM    6  C   UNL     1      25.141  11.275 -14.756  1.00  0.00     0.010 C 
BRANCH   6   7
HETATM    7  C   UNL     1      23.875  11.873 -14.132  1.00  0.00     0.001 C 
BRANCH   7   8
HETATM    8  C   UNL     1      24.166  12.444 -12.739  1.00  0.00     0.000 C 
BRANCH   8   9
HETATM    9  C   UNL     1      25.054  11.494 -11.928  1.00  0.00     0.000 C 
BRANCH   9  10
HETATM   10  C   UNL     1      25.352  12.069 -10.538  1.00  0.00     0.000 C 
BRANCH  10  11
HETATM   11  C   UNL     1      24.114  11.996  -9.636  1.00  0.00     0.000 C 
BRANCH  11  12
HETATM   12  C   UNL     1      24.486  12.252  -8.170  1.00  0.00     0.000 C 
BRANCH  12  13
HETATM   13  C   UNL     1      25.252  11.063  -7.580  1.00  0.00     0.000 C 
BRANCH  13  14
HETATM   14  C   UNL     1      25.641  11.328  -6.121  1.00  0.00     0.000 C 
BRANCH  14  15
HETATM   15  C   UNL     1      24.400  11.572  -5.256  1.00  0.00    -0.000 C 
BRANCH  15  16
HETATM   16  C   UNL     1      24.781  12.206  -3.913  1.00  0.00    -0.005 C 
HETATM   17  C   UNL     1      23.938  11.637  -2.775  1.00  0.00     0.005 C 
ENDBRANCH  15  16
ENDBRANCH  14  15
ENDBRANCH  13  14
ENDBRANCH  12  13
ENDBRANCH  11  12
ENDBRANCH  10  11
ENDBRANCH   9  10
ENDBRANCH   8   9
ENDBRANCH   7   8
ENDBRANCH   6   7
ENDBRANCH   5   6
ENDBRANCH   3   5
ENDBRANCH   1   3
TORSDOF 13
ENDMDL
MODEL 9
REMARK VINA RESULT:      -5.0     22.473     24.070
REMARK  13 active torsions:
REMARK  status: ('A' for Active; 'I' for Inactive)
REMARK    1  A    between atoms: O_1  and  C_16 
REMARK    2  A    between atoms: C_3  and  C_4 
REMARK    3  A    between atoms: C_3  and  C_5 
REMARK    4  A    between atoms: C_4  and  C_6 
REMARK    5  A    between atoms: C_5  and  C_7 
REMARK    6  A    between atoms: C_6  and  C_8 
REMARK    7  A    between atoms: C_7  and  C_9 
REMARK    8  A    between atoms: C_8  and  C_10 
REMARK    9  A    between atoms: C_9  and  C_11 
REMARK   10  A    between atoms: C_10  and  C_12 
REMARK   11  A    between atoms: C_11  and  C_13 
REMARK   12  A    between atoms: C_12  and  C_14 
REMARK   13  A    between atoms: C_14  and  C_16 
ROOT
HETATM    1  O   UNL     1      26.028  10.920  -7.514  1.00  0.00    -0.776 OA
HETATM    2  H   UNL     1      26.114  10.030  -7.883  1.00  0.00     0.167 HD
ENDROOT
BRANCH   1   3
HETATM    3  C   UNL     1      25.149  11.811  -8.016  1.00  0.00     0.139 C 
HETATM    4  O   UNL     1      25.194  12.978  -7.656  1.00  0.00    -0.650 OA
BRANCH   3   5
HETATM    5  C   UNL     1      24.125  11.341  -9.018  1.00  0.00     0.110 C 
BRANCH   5   6
HETATM    6  C   UNL     1      24.062  12.223 -10.274  1.00  0.00     0.010 C 
BRANCH   6   7
HETATM    7  C   UNL     1      24.918  11.636 -11.402  1.00  0.00     0.001 C 
BRANCH   7   8
HETATM    8  C   UNL     1      24.759  12.448 -12.693  1.00  0.00     0.000 C 
BRANCH   8   9
HETATM    9  C   UNL     1      23.917  11.686 -13.723  1.00  0.00     0.000 C 
BRANCH   9  10
HETATM   10  C   UNL     1      24.780  11.214 -14.899  1.00  0.00     0.000 C 
BRANCH  10  11
HETATM   11  C   UNL     1      24.544  12.085 -16.139  1.00  0.00     0.000 C 
BRANCH  11  12
HETATM   12  C   UNL     1      25.180  11.455 -17.383  1.00  0.00     0.000 C 
BRANCH  12  13
HETATM   13  C   UNL     1      26.657  11.849 -17.506  1.00  0.00     0.000 C 
BRANCH  13  14
HETATM   14  C   UNL     1      26.803  13.325 -17.894  1.00  0.00     0.000 C 
BRANCH  14  15
HETATM   15  C   UNL     1      27.861  14.020 -17.028  1.00  0.00    -0.000 C 
BRANCH  15  16
HETATM   16  C   UNL     1      27.781  13.541 -15.574  1.00  0.00    -0.005 C 
HETATM   17  C   UNL     1      29.047  12.788 -15.172  1.00  0.00     0.005 C 
ENDBRANCH  15  16
ENDBRANCH  14  15
ENDBRANCH  13  14
ENDBRANCH  12  13
ENDBRANCH  11  12
ENDBRANCH  10  11
ENDBRANCH   9  10
ENDBRANCH   8   9
ENDBRANCH   7   8
ENDBRANCH   6   7
ENDBRANCH   5   6
ENDBRANCH   3   5
ENDBRANCH   1   3
TORSDOF 13
ENDMDL
MODEL 10
REMARK VINA RESULT:      -5.0     22.317     24.337
REMARK  13 active torsions:
REMARK  status: ('A' for Active; 'I' for Inactive)
REMARK    1  A    between atoms: O_1  and  C_16 
REMARK    2  A    between atoms: C_3  and  C_4 
REMARK    3  A    between atoms: C_3  and  C_5 
REMARK    4  A    between atoms: C_4  and  C_6 
REMARK    5  A    between atoms: C_5  and  C_7 
REMARK    6  A    between atoms: C_6  and  C_8 
REMARK    7  A    between atoms: C_7  and  C_9 
REMARK    8  A    between atoms: C_8  and  C_10 
REMARK    9  A    between atoms: C_9  and  C_11 
REMARK   10  A    between atoms: C_10  and  C_12 
REMARK   11  A    between atoms: C_11  and  C_13 
REMARK   12  A    between atoms: C_12  and  C_14 
REMARK   13  A    between atoms: C_14  and  C_16 
ROOT
HETATM    1  O   UNL     1      28.798  12.465 -10.589  1.00  0.00    -0.776 OA
HETATM    2  H   UNL     1      29.744  12.416 -10.387  1.00  0.00     0.167 HD
ENDROOT
BRANCH   1   3
HETATM    3  C   UNL     1      27.898  11.697  -9.939  1.00  0.00     0.139 C 
HETATM    4  O   UNL     1      28.180  10.542  -9.654  1.00  0.00    -0.650 OA
BRANCH   3   5
HETATM    5  C   UNL     1      26.560  12.287  -9.579  1.00  0.00     0.110 C 
BRANCH   5   6
HETATM    6  C   UNL     1      25.384  11.581 -10.271  1.00  0.00     0.010 C 
BRANCH   6   7
HETATM    7  C   UNL     1      25.613  11.483 -11.783  1.00  0.00     0.001 C 
BRANCH   7   8
HETATM    8  C   UNL     1      24.460  12.130 -12.559  1.00  0.00     0.000 C 
BRANCH   8   9
HETATM    9  C   UNL     1      24.164  11.360 -13.851  1.00  0.00     0.000 C 
BRANCH   9  10
HETATM   10  C   UNL     1      24.468  12.218 -15.085  1.00  0.00     0.000 C 
BRANCH  10  11
HETATM   11  C   UNL     1      25.225  11.409 -16.145  1.00  0.00     0.000 C 
BRANCH  11  12
HETATM   12  C   UNL     1      25.152  12.093 -17.515  1.00  0.00     0.000 C 
BRANCH  12  13
HETATM   13  C   UNL     1      24.186  11.354 -18.448  1.00  0.00     0.000 C 
BRANCH  13  14
HETATM   14  C   UNL     1      24.062  12.075 -19.796  1.00  0.00     0.000 C 
BRANCH  14  15
HETATM   15  C   UNL     1      24.962  11.424 -20.853  1.00  0.00    -0.000 C 
BRANCH  15  16
HETATM   16  C   UNL     1      25.054  12.299 -22.109  1.00  0.00    -0.005 C 
HETATM   17  C   UNL     1      26.504  12.662 -22.422  1.00  0.00     0.005 C 
ENDBRANCH  15  16
ENDBRANCH  14  15
ENDBRANCH  13  14
ENDBRANCH  12  13
ENDBRANCH  11  12
ENDBRANCH  10  11
ENDBRANCH   9  10
ENDBRANCH   8   9
ENDBRANCH   7   8
ENDBRANCH   6   7
ENDBRANCH   5   6
ENDBRANCH   3   5
ENDBRANCH   1   3
TORSDOF 13
ENDMDL
MODEL 11
REMARK VINA RESULT:      -4.9     21.306     21.777
REMARK  13 active torsions:
REMARK  status: ('A' for Active; 'I' for Inactive)
REMARK    1  A    between atoms: O_1  and  C_16 
REMARK    2  A    between atoms: C_3  and  C_4 
REMARK    3  A    between atoms: C_3  and  C_5 
REMARK    4  A    between atoms: C_4  and  C_6 
REMARK    5  A    between atoms: C_5  and  C_7 
REMARK    6  A    between atoms: C_6  and  C_8 
REMARK    7  A    between atoms: C_7  and  C_9 
REMARK    8  A    between atoms: C_8  and  C_10 
REMARK    9  A    between atoms: C_9  and  C_11 
REMARK   10  A    between atoms: C_10  and  C_12 
REMARK   11  A    between atoms: C_11  and  C_13 
REMARK   12  A    between atoms: C_12  and  C_14 
REMARK   13  A    between atoms: C_14  and  C_16 
ROOT
HETATM    1  O   UNL     1      26.117  13.254 -22.353  1.00  0.00    -0.776 OA
HETATM    2  H   UNL     1      25.988  14.208 -22.460  1.00  0.00     0.167 HD
ENDROOT
BRANCH   1   3
HETATM    3  C   UNL     1      25.086  12.389 -22.444  1.00  0.00     0.139 C 
HETATM    4  O   UNL     1      24.229  12.553 -23.301  1.00  0.00    -0.650 OA
BRANCH   3   5
HETATM    5  C   UNL     1      25.015  11.233 -21.479  1.00  0.00     0.110 C 
BRANCH   5   6
HETATM    6  C   UNL     1      25.045  11.673 -20.008  1.00  0.00     0.010 C 
BRANCH   6   7
HETATM    7  C   UNL     1      26.403  11.360 -19.368  1.00  0.00     0.001 C 
BRANCH   7   8
HETATM    8  C   UNL     1      26.475  11.904 -17.936  1.00  0.00     0.000 C 
BRANCH   8   9
HETATM    9  C   UNL     1      25.163  12.592 -17.542  1.00  0.00     0.000 C 
BRANCH   9  10
HETATM   10  C   UNL     1      24.402  11.768 -16.496  1.00  0.00     0.000 C 
BRANCH  10  11
HETATM   11  C   UNL     1      25.237  11.588 -15.223  1.00  0.00     0.000 C 
BRANCH  11  12
HETATM   12  C   UNL     1      24.337  11.419 -13.993  1.00  0.00     0.000 C 
BRANCH  12  13
HETATM   13  C   UNL     1      25.170  11.155 -12.733  1.00  0.00     0.000 C 
BRANCH  13  14
HETATM   14  C   UNL     1      25.102  12.345 -11.769  1.00  0.00     0.000 C 
BRANCH  14  15
HETATM   15  C   UNL     1      25.777  12.010 -10.433  1.00  0.00    -0.000 C 
BRANCH  15  16
HETATM   16  C   UNL     1      24.819  11.246  -9.511  1.00  0.00    -0.005 C 
HETATM   17  C   UNL     1      23.540  12.042  -9.265  1.00  0.00     0.005 C 
ENDBRANCH  15  16
ENDBRANCH  14  15
ENDBRANCH  13  14
ENDBRANCH  12  13
ENDBRANCH  11  12
ENDBRANCH  10  11
ENDBRANCH   9  10
ENDBRANCH   8   9
ENDBRANCH   7   8
ENDBRANCH   6   7
ENDBRANCH   5   6
ENDBRANCH   3   5
ENDBRANCH   1   3
TORSDOF 13
ENDMDL
MODEL 12
REMARK VINA RESULT:      -4.9     23.170     24.572
REMARK  13 active torsions:
REMARK  status: ('A' for Active; 'I' for Inactive)
REMARK    1  A    between atoms: O_1  and  C_16 
REMARK    2  A    between atoms: C_3  and  C_4 
REMARK    3  A    between atoms: C_3  and  C_5 
REMARK    4  A    between atoms: C_4  and  C_6 
REMARK    5  A    between atoms: C_5  and  C_7 
REMARK    6  A    between atoms: C_6  and  C_8 
REMARK    7  A    between atoms: C_7  and  C_9 
REMARK    8  A    between atoms: C_8  and  C_10 
REMARK    9  A    between atoms: C_9  and  C_11 
REMARK   10  A    between atoms: C_10  and  C_12 
REMARK   11  A    between atoms: C_11  and  C_13 
REMARK   12  A    between atoms: C_12  and  C_14 
REMARK   13  A    between atoms: C_14  and  C_16 
ROOT
HETATM    1  O   UNL     1      25.101  12.827  -7.338  1.00  0.00    -0.776 OA
HETATM    2  H   UNL     1      24.889  13.022  -6.414  1.00  0.00     0.167 HD
ENDROOT
BRANCH   1   3
HETATM    3  C   UNL     1      24.952  11.587  -7.849  1.00  0.00     0.139 C 
HETATM    4  O   UNL     1      25.624  10.665  -7.409  1.00  0.00    -0.650 OA
BRANCH   3   5
HETATM    5  C   UNL     1      23.955  11.368  -8.957  1.00  0.00     0.110 C 
BRANCH   5   6
HETATM    6  C   UNL     1      24.292  12.150 -10.236  1.00  0.00     0.010 C 
BRANCH   6   7
HETATM    7  C   UNL     1      25.583  11.627 -10.876  1.00  0.00     0.001 C 
BRANCH   7   8
HETATM    8  C   UNL     1      25.310  11.040 -12.266  1.00  0.00     0.000 C 
BRANCH   8   9
HETATM    9  C   UNL     1      24.159  11.779 -12.959  1.00  0.00     0.000 C 
BRANCH   9  10
HETATM   10  C   UNL     1      24.507  12.094 -14.419  1.00  0.00     0.000 C 
BRANCH  10  11
HETATM   11  C   UNL     1      26.024  12.089 -14.637  1.00  0.00     0.000 C 
BRANCH  11  12
HETATM   12  C   UNL     1      26.385  11.448 -15.982  1.00  0.00     0.000 C 
BRANCH  12  13
HETATM   13  C   UNL     1      27.700  10.665 -15.884  1.00  0.00     0.000 C 
BRANCH  13  14
HETATM   14  C   UNL     1      28.767  11.472 -15.135  1.00  0.00     0.000 C 
BRANCH  14  15
HETATM   15  C   UNL     1      29.633  10.560 -14.259  1.00  0.00    -0.000 C 
BRANCH  15  16
HETATM   16  C   UNL     1      30.096   9.325 -15.041  1.00  0.00    -0.005 C 
HETATM   17  C   UNL     1      30.798   8.325 -14.126  1.00  0.00     0.005 C 
ENDBRANCH  15  16
ENDBRANCH  14  15
ENDBRANCH  13  14
ENDBRANCH  12  13
ENDBRANCH  11  12
ENDBRANCH  10  11
ENDBRANCH   9  10
ENDBRANCH   8   9
ENDBRANCH   7   8
ENDBRANCH   6   7
ENDBRANCH   5   6
ENDBRANCH   3   5
ENDBRANCH   1   3
TORSDOF 13
ENDMDL
MODEL 13
REMARK VINA RESULT:      -4.9     21.541     22.157
REMARK  13 active torsions:
REMARK  status: ('A' for Active; 'I' for Inactive)
REMARK    1  A    between atoms: O_1  and  C_16 
REMARK    2  A    between atoms: C_3  and  C_4 
REMARK    3  A    between atoms: C_3  and  C_5 
REMARK    4  A    between atoms: C_4  and  C_6 
REMARK    5  A    between atoms: C_5  and  C_7 
REMARK    6  A    between atoms: C_6  and  C_8 
REMARK    7  A    between atoms: C_7  and  C_9 
REMARK    8  A    between atoms: C_8  and  C_10 
REMARK    9  A    between atoms: C_9  and  C_11 
REMARK   10  A    between atoms: C_10  and  C_12 
REMARK   11  A    between atoms: C_11  and  C_13 
REMARK   12  A    between atoms: C_12  and  C_14 
REMARK   13  A    between atoms: C_14  and  C_16 
ROOT
HETATM    1  O   UNL     1      25.181  11.077 -21.362  1.00  0.00    -0.776 OA
HETATM    2  H   UNL     1      25.965  11.249 -21.902  1.00  0.00     0.167 HD
ENDROOT
BRANCH   1   3
HETATM    3  C   UNL     1      24.783  11.936 -20.401  1.00  0.00     0.139 C 
HETATM    4  O   UNL     1      23.891  12.738 -20.635  1.00  0.00    -0.650 OA
BRANCH   3   5
HETATM    5  C   UNL     1      25.454  11.884 -19.052  1.00  0.00     0.110 C 
BRANCH   5   6
HETATM    6  C   UNL     1      24.521  11.397 -17.933  1.00  0.00     0.010 C 
BRANCH   6   7
HETATM    7  C   UNL     1      25.314  11.050 -16.668  1.00  0.00     0.001 C 
BRANCH   7   8
HETATM    8  C   UNL     1      25.134  12.128 -15.592  1.00  0.00     0.000 C 
BRANCH   8   9
HETATM    9  C   UNL     1      23.962  11.788 -14.664  1.00  0.00     0.000 C 
BRANCH   9  10
HETATM   10  C   UNL     1      24.464  11.300 -13.299  1.00  0.00     0.000 C 
BRANCH  10  11
HETATM   11  C   UNL     1      24.661  12.474 -12.333  1.00  0.00     0.000 C 
BRANCH  11  12
HETATM   12  C   UNL     1      24.434  12.037 -10.881  1.00  0.00     0.000 C 
BRANCH  12  13
HETATM   13  C   UNL     1      25.755  11.997 -10.106  1.00  0.00     0.000 C 
BRANCH  13  14
HETATM   14  C   UNL     1      26.855  12.762 -10.852  1.00  0.00     0.000 C 
BRANCH  14  15
HETATM   15  C   UNL     1      27.739  13.547  -9.875  1.00  0.00    -0.000 C 
BRANCH  15  16
HETATM   16  C   UNL     1      27.397  13.197  -8.422  1.00  0.00    -0.005 C 
HETATM   17  C   UNL     1      27.730  14.355  -7.484  1.00  0.00     0.005 C 
ENDBRANCH  15  16
ENDBRANCH  14  15
ENDBRANCH  13  14
ENDBRANCH  12  13
ENDBRANCH  11  12
ENDBRANCH  10  11
ENDBRANCH   9  10
ENDBRANCH   8   9
ENDBRANCH   7   8
ENDBRANCH   6   7
ENDBRANCH   5   6
ENDBRANCH   3   5
ENDBRANCH   1   3
TORSDOF 13
ENDMDL
MODEL 14
REMARK VINA RESULT:      -4.9     22.007     22.912
REMARK  13 active torsions:
REMARK  status: ('A' for Active; 'I' for Inactive)
REMARK    1  A    between atoms: O_1  and  C_16 
REMARK    2  A    between atoms: C_3  and  C_4 
REMARK    3  A    between atoms: C_3  and  C_5 
REMARK    4  A    between atoms: C_4  and  C_6 
REMARK    5  A    between atoms: C_5  and  C_7 
REMARK    6  A    between atoms: C_6  and  C_8 
REMARK    7  A    between atoms: C_7  and  C_9 
REMARK    8  A    between atoms: C_8  and  C_10 
REMARK    9  A    between atoms: C_9  and  C_11 
REMARK   10  A    between atoms: C_10  and  C_12 
REMARK   11  A    between atoms: C_11  and  C_13 
REMARK   12  A    between atoms: C_12  and  C_14 
REMARK   13  A    between atoms: C_14  and  C_16 
ROOT
HETATM    1  O   UNL     1      27.537  13.933 -16.056  1.00  0.00    -0.776 OA
HETATM    2  H   UNL     1      27.893  13.857 -16.953  1.00  0.00     0.167 HD
ENDROOT
BRANCH   1   3
HETATM    3  C   UNL     1      27.018  12.868 -15.411  1.00  0.00     0.139 C 
HETATM    4  O   UNL     1      27.581  12.425 -14.419  1.00  0.00    -0.650 OA
BRANCH   3   5
HETATM    5  C   UNL     1      25.749  12.245 -15.933  1.00  0.00     0.110 C 
BRANCH   5   6
HETATM    6  C   UNL     1      25.094  11.282 -14.931  1.00  0.00     0.010 C 
BRANCH   6   7
HETATM    7  C   UNL     1      23.847  11.911 -14.298  1.00  0.00     0.001 C 
BRANCH   7   8
HETATM    8  C   UNL     1      24.163  12.482 -12.910  1.00  0.00     0.000 C 
BRANCH   8   9
HETATM    9  C   UNL     1      24.997  11.494 -12.085  1.00  0.00     0.000 C 
BRANCH   9  10
HETATM   10  C   UNL     1      25.302  12.061 -10.693  1.00  0.00     0.000 C 
BRANCH  10  11
HETATM   11  C   UNL     1      24.033  12.132  -9.837  1.00  0.00     0.000 C 
BRANCH  11  12
HETATM   12  C   UNL     1      24.377  12.345  -8.358  1.00  0.00     0.000 C 
BRANCH  12  13
HETATM   13  C   UNL     1      24.920  11.057  -7.728  1.00  0.00     0.000 C 
BRANCH  13  14
HETATM   14  C   UNL     1      25.362  11.297  -6.279  1.00  0.00     0.000 C 
BRANCH  14  15
HETATM   15  C   UNL     1      26.856  11.002  -6.103  1.00  0.00    -0.000 C 
BRANCH  15  16
HETATM   16  C   UNL     1      27.708  12.196  -6.550  1.00  0.00    -0.005 C 
HETATM   17  C   UNL     1      28.938  11.734  -7.328  1.00  0.00     0.005 C 
ENDBRANCH  15  16
ENDBRANCH  14  15
ENDBRANCH  13  14
ENDBRANCH  12  13
ENDBRANCH  11  12
ENDBRANCH  10  11
ENDBRANCH   9  10
ENDBRANCH   8   9
ENDBRANCH   7   8
ENDBRANCH   6   7
ENDBRANCH   5   6
ENDBRANCH   3   5
ENDBRANCH   1   3
TORSDOF 13
ENDMDL
MODEL 15
REMARK VINA RESULT:      -4.9     22.229     24.143
REMARK  13 active torsions:
REMARK  status: ('A' for Active; 'I' for Inactive)
REMARK    1  A    between atoms: O_1  and  C_16 
REMARK    2  A    between atoms: C_3  and  C_4 
REMARK    3  A    between atoms: C_3  and  C_5 
REMARK    4  A    between atoms: C_4  and  C_6 
REMARK    5  A    between atoms: C_5  and  C_7 
REMARK    6  A    between atoms: C_6  and  C_8 
REMARK    7  A    between atoms: C_7  and  C_9 
REMARK    8  A    between atoms: C_8  and  C_10 
REMARK    9  A    between atoms: C_9  and  C_11 
REMARK   10  A    between atoms: C_10  and  C_12 
REMARK   11  A    between atoms: C_11  and  C_13 
REMARK   12  A    between atoms: C_12  and  C_14 
REMARK   13  A    between atoms: C_14  and  C_16 
ROOT
HETATM    1  O   UNL     1      26.450  13.233 -11.791  1.00  0.00    -0.776 OA
HETATM    2  H   UNL     1      27.351  13.273 -12.142  1.00  0.00     0.167 HD
ENDROOT
BRANCH   1   3
HETATM    3  C   UNL     1      25.949  12.097 -11.263  1.00  0.00     0.139 C 
HETATM    4  O   UNL     1      26.035  11.899 -10.059  1.00  0.00    -0.650 OA
BRANCH   3   5
HETATM    5  C   UNL     1      25.290  11.095 -12.175  1.00  0.00     0.110 C 
BRANCH   5   6
HETATM    6  C   UNL     1      25.545  11.376 -13.664  1.00  0.00     0.010 C 
BRANCH   6   7
HETATM    7  C   UNL     1      24.295  11.955 -14.336  1.00  0.00     0.001 C 
BRANCH   7   8
HETATM    8  C   UNL     1      24.434  11.941 -15.863  1.00  0.00     0.000 C 
BRANCH   8   9
HETATM    9  C   UNL     1      25.557  10.996 -16.304  1.00  0.00     0.000 C 
BRANCH   9  10
HETATM   10  C   UNL     1      26.440  11.652 -17.372  1.00  0.00     0.000 C 
BRANCH  10  11
HETATM   11  C   UNL     1      25.593  12.436 -18.381  1.00  0.00     0.000 C 
BRANCH  11  12
HETATM   12  C   UNL     1      24.943  11.496 -19.403  1.00  0.00     0.000 C 
BRANCH  12  13
HETATM   13  C   UNL     1      23.954  12.253 -20.297  1.00  0.00     0.000 C 
BRANCH  13  14
HETATM   14  C   UNL     1      24.432  12.273 -21.754  1.00  0.00     0.000 C 
BRANCH  14  15
HETATM   15  C   UNL     1      25.603  11.304 -21.962  1.00  0.00    -0.000 C 
BRANCH  15  16
HETATM   16  C   UNL     1      26.121  11.371 -23.403  1.00  0.00    -0.005 C 
HETATM   17  C   UNL     1      26.711  12.745 -23.714  1.00  0.00     0.005 C 
ENDBRANCH  15  16
ENDBRANCH  14  15
ENDBRANCH  13  14
ENDBRANCH  12  13
ENDBRANCH  11  12
ENDBRANCH  10  11
ENDBRANCH   9  10
ENDBRANCH   8   9
ENDBRANCH   7   8
ENDBRANCH   6   7
ENDBRANCH   5   6
ENDBRANCH   3   5
ENDBRANCH   1   3
TORSDOF 13
ENDMDL
MODEL 16
REMARK VINA RESULT:      -4.9     22.676     24.727
REMARK  13 active torsions:
REMARK  status: ('A' for Active; 'I' for Inactive)
REMARK    1  A    between atoms: O_1  and  C_16 
REMARK    2  A    between atoms: C_3  and  C_4 
REMARK    3  A    between atoms: C_3  and  C_5 
REMARK    4  A    between atoms: C_4  and  C_6 
REMARK    5  A    between atoms: C_5  and  C_7 
REMARK    6  A    between atoms: C_6  and  C_8 
REMARK    7  A    between atoms: C_7  and  C_9 
REMARK    8  A    between atoms: C_8  and  C_10 
REMARK    9  A    between atoms: C_9  and  C_11 
REMARK   10  A    between atoms: C_10  and  C_12 
REMARK   11  A    between atoms: C_11  and  C_13 
REMARK   12  A    between atoms: C_12  and  C_14 
REMARK   13  A    between atoms: C_14  and  C_16 
ROOT
HETATM    1  O   UNL     1      30.080  14.226  -8.032  1.00  0.00    -0.776 OA
HETATM    2  H   UNL     1      30.444  13.934  -8.880  1.00  0.00     0.167 HD
ENDROOT
BRANCH   1   3
HETATM    3  C   UNL     1      29.164  13.492  -7.368  1.00  0.00     0.139 C 
HETATM    4  O   UNL     1      29.470  12.949  -6.314  1.00  0.00    -0.650 OA
BRANCH   3   5
HETATM    5  C   UNL     1      27.779  13.357  -7.943  1.00  0.00     0.110 C 
BRANCH   5   6
HETATM    6  C   UNL     1      26.750  12.843  -6.924  1.00  0.00     0.010 C 
BRANCH   6   7
HETATM    7  C   UNL     1      25.900  11.716  -7.521  1.00  0.00     0.001 C 
BRANCH   7   8
HETATM    8  C   UNL     1      24.485  12.208  -7.850  1.00  0.00     0.000 C 
BRANCH   8   9
HETATM    9  C   UNL     1      23.908  11.458  -9.056  1.00  0.00     0.000 C 
BRANCH   9  10
HETATM   10  C   UNL     1      24.027  12.297 -10.334  1.00  0.00     0.000 C 
BRANCH  10  11
HETATM   11  C   UNL     1      25.281  11.915 -11.129  1.00  0.00     0.000 C 
BRANCH  11  12
HETATM   12  C   UNL     1      24.910  11.352 -12.506  1.00  0.00     0.000 C 
BRANCH  12  13
HETATM   13  C   UNL     1      24.059  12.350 -13.298  1.00  0.00     0.000 C 
BRANCH  13  14
HETATM   14  C   UNL     1      24.002  11.970 -14.782  1.00  0.00     0.000 C 
BRANCH  14  15
HETATM   15  C   UNL     1      25.385  11.550 -15.296  1.00  0.00    -0.000 C 
BRANCH  15  16
HETATM   16  C   UNL     1      25.342  11.239 -16.796  1.00  0.00    -0.005 C 
HETATM   17  C   UNL     1      24.640  12.352 -17.570  1.00  0.00     0.005 C 
ENDBRANCH  15  16
ENDBRANCH  14  15
ENDBRANCH  13  14
ENDBRANCH  12  13
ENDBRANCH  11  12
ENDBRANCH  10  11
ENDBRANCH   9  10
ENDBRANCH   8   9
ENDBRANCH   7   8
ENDBRANCH   6   7
ENDBRANCH   5   6
ENDBRANCH   3   5
ENDBRANCH   1   3
TORSDOF 13
ENDMDL
MODEL 17
REMARK VINA RESULT:      -4.8     22.157     24.120
REMARK  13 active torsions:
REMARK  status: ('A' for Active; 'I' for Inactive)
REMARK    1  A    between atoms: O_1  and  C_16 
REMARK    2  A    between atoms: C_3  and  C_4 
REMARK    3  A    between atoms: C_3  and  C_5 
REMARK    4  A    between atoms: C_4  and  C_6 
REMARK    5  A    between atoms: C_5  and  C_7 
REMARK    6  A    between atoms: C_6  and  C_8 
REMARK    7  A    between atoms: C_7  and  C_9 
REMARK    8  A    between atoms: C_8  and  C_10 
REMARK    9  A    between atoms: C_9  and  C_11 
REMARK   10  A    between atoms: C_10  and  C_12 
REMARK   11  A    between atoms: C_11  and  C_13 
REMARK   12  A    between atoms: C_12  and  C_14 
REMARK   13  A    between atoms: C_14  and  C_16 
ROOT
HETATM    1  O   UNL     1      25.400  10.594 -12.096  1.00  0.00    -0.776 OA
HETATM    2  H   UNL     1      26.083  10.292 -12.711  1.00  0.00     0.167 HD
ENDROOT
BRANCH   1   3
HETATM    3  C   UNL     1      24.963  11.870 -12.099  1.00  0.00     0.139 C 
HETATM    4  O   UNL     1      25.026  12.536 -11.075  1.00  0.00    -0.650 OA
BRANCH   3   5
HETATM    5  C   UNL     1      24.405  12.449 -13.373  1.00  0.00     0.110 C 
BRANCH   5   6
HETATM    6  C   UNL     1      24.116  11.385 -14.443  1.00  0.00     0.010 C 
BRANCH   6   7
HETATM    7  C   UNL     1      25.317  11.204 -15.378  1.00  0.00     0.001 C 
BRANCH   7   8
HETATM    8  C   UNL     1      25.422  12.367 -16.372  1.00  0.00     0.000 C 
BRANCH   8   9
HETATM    9  C   UNL     1      24.290  12.311 -17.405  1.00  0.00     0.000 C 
BRANCH   9  10
HETATM   10  C   UNL     1      24.648  11.372 -18.563  1.00  0.00     0.000 C 
BRANCH  10  11
HETATM   11  C   UNL     1      26.074  11.631 -19.062  1.00  0.00     0.000 C 
BRANCH  11  12
HETATM   12  C   UNL     1      26.130  11.629 -20.594  1.00  0.00     0.000 C 
BRANCH  12  13
HETATM   13  C   UNL     1      24.773  11.245 -21.195  1.00  0.00     0.000 C 
BRANCH  13  14
HETATM   14  C   UNL     1      24.769  11.437 -22.716  1.00  0.00     0.000 C 
BRANCH  14  15
HETATM   15  C   UNL     1      25.591  12.668 -23.117  1.00  0.00    -0.000 C 
BRANCH  15  16
HETATM   16  C   UNL     1      26.653  12.302 -24.161  1.00  0.00    -0.005 C 
HETATM   17  C   UNL     1      28.045  12.729 -23.704  1.00  0.00     0.005 C 
ENDBRANCH  15  16
ENDBRANCH  14  15
ENDBRANCH  13  14
ENDBRANCH  12  13
ENDBRANCH  11  12
ENDBRANCH  10  11
ENDBRANCH   9  10
ENDBRANCH   8   9
ENDBRANCH   7   8
ENDBRANCH   6   7
ENDBRANCH   5   6
ENDBRANCH   3   5
ENDBRANCH   1   3
TORSDOF 13
ENDMDL
MODEL 18
REMARK VINA RESULT:      -4.8     22.047     22.549
REMARK  13 active torsions:
REMARK  status: ('A' for Active; 'I' for Inactive)
REMARK    1  A    between atoms: O_1  and  C_16 
REMARK    2  A    between atoms: C_3  and  C_4 
REMARK    3  A    between atoms: C_3  and  C_5 
REMARK    4  A    between atoms: C_4  and  C_6 
REMARK    5  A    between atoms: C_5  and  C_7 
REMARK    6  A    between atoms: C_6  and  C_8 
REMARK    7  A    between atoms: C_7  and  C_9 
REMARK    8  A    between atoms: C_8  and  C_10 
REMARK    9  A    between atoms: C_9  and  C_11 
REMARK   10  A    between atoms: C_10  and  C_12 
REMARK   11  A    between atoms: C_11  and  C_13 
REMARK   12  A    between atoms: C_12  and  C_14 
REMARK   13  A    between atoms: C_14  and  C_16 
ROOT
HETATM    1  O   UNL     1      28.046  10.905 -22.403  1.00  0.00    -0.776 OA
HETATM    2  H   UNL     1      27.383  10.266 -22.103  1.00  0.00     0.167 HD
ENDROOT
BRANCH   1   3
HETATM    3  C   UNL     1      27.701  12.147 -22.798  1.00  0.00     0.139 C 
HETATM    4  O   UNL     1      28.467  12.798 -23.495  1.00  0.00    -0.650 OA
BRANCH   3   5
HETATM    5  C   UNL     1      26.369  12.707 -22.368  1.00  0.00     0.110 C 
BRANCH   5   6
HETATM    6  C   UNL     1      25.286  11.630 -22.207  1.00  0.00     0.010 C 
BRANCH   6   7
HETATM    7  C   UNL     1      25.122  11.230 -20.736  1.00  0.00     0.001 C 
BRANCH   7   8
HETATM    8  C   UNL     1      24.385  12.320 -19.948  1.00  0.00     0.000 C 
BRANCH   8   9
HETATM    9  C   UNL     1      23.922  11.795 -18.584  1.00  0.00     0.000 C 
BRANCH   9  10
HETATM   10  C   UNL     1      25.061  11.068 -17.859  1.00  0.00     0.000 C 
BRANCH  10  11
HETATM   11  C   UNL     1      25.231  11.600 -16.431  1.00  0.00     0.000 C 
BRANCH  11  12
HETATM   12  C   UNL     1      23.949  12.281 -15.940  1.00  0.00     0.000 C 
BRANCH  12  13
HETATM   13  C   UNL     1      23.942  12.406 -14.412  1.00  0.00     0.000 C 
BRANCH  13  14
HETATM   14  C   UNL     1      24.392  11.098 -13.751  1.00  0.00     0.000 C 
BRANCH  14  15
HETATM   15  C   UNL     1      25.062  11.367 -12.398  1.00  0.00    -0.000 C 
BRANCH  15  16
HETATM   16  C   UNL     1      26.204  12.378 -12.542  1.00  0.00    -0.005 C 
HETATM   17  C   UNL     1      27.368  11.786 -13.333  1.00  0.00     0.005 C 
ENDBRANCH  15  16
ENDBRANCH  14  15
ENDBRANCH  13  14
ENDBRANCH  12  13
ENDBRANCH  11  12
ENDBRANCH  10  11
ENDBRANCH   9  10
ENDBRANCH   8   9
ENDBRANCH   7   8
ENDBRANCH   6   7
ENDBRANCH   5   6
ENDBRANCH   3   5
ENDBRANCH   1   3
TORSDOF 13
ENDMDL
MODEL 19
REMARK VINA RESULT:      -4.8     22.167     23.507
REMARK  13 active torsions:
REMARK  status: ('A' for Active; 'I' for Inactive)
REMARK    1  A    between atoms: O_1  and  C_16 
REMARK    2  A    between atoms: C_3  and  C_4 
REMARK    3  A    between atoms: C_3  and  C_5 
REMARK    4  A    between atoms: C_4  and  C_6 
REMARK    5  A    between atoms: C_5  and  C_7 
REMARK    6  A    between atoms: C_6  and  C_8 
REMARK    7  A    between atoms: C_7  and  C_9 
REMARK    8  A    between atoms: C_8  and  C_10 
REMARK    9  A    between atoms: C_9  and  C_11 
REMARK   10  A    between atoms: C_10  and  C_12 
REMARK   11  A    between atoms: C_11  and  C_13 
REMARK   12  A    between atoms: C_12  and  C_14 
REMARK   13  A    between atoms: C_14  and  C_16 
ROOT
HETATM    1  O   UNL     1      26.623  11.498 -14.689  1.00  0.00    -0.776 OA
HETATM    2  H   UNL     1      27.257  12.110 -14.286  1.00  0.00     0.167 HD
ENDROOT
BRANCH   1   3
HETATM    3  C   UNL     1      25.334  11.844 -14.882  1.00  0.00     0.139 C 
HETATM    4  O   UNL     1      25.009  12.425 -15.908  1.00  0.00    -0.650 OA
BRANCH   3   5
HETATM    5  C   UNL     1      24.319  11.504 -13.822  1.00  0.00     0.110 C 
BRANCH   5   6
HETATM    6  C   UNL     1      24.371  12.449 -12.612  1.00  0.00     0.010 C 
BRANCH   6   7
HETATM    7  C   UNL     1      24.749  11.689 -11.335  1.00  0.00     0.001 C 
BRANCH   7   8
HETATM    8  C   UNL     1      24.085  12.316 -10.104  1.00  0.00     0.000 C 
BRANCH   8   9
HETATM    9  C   UNL     1      24.028  11.319  -8.941  1.00  0.00     0.000 C 
BRANCH   9  10
HETATM   10  C   UNL     1      24.510  11.965  -7.637  1.00  0.00     0.000 C 
BRANCH  10  11
HETATM   11  C   UNL     1      25.890  12.607  -7.819  1.00  0.00     0.000 C 
BRANCH  11  12
HETATM   12  C   UNL     1      26.996  11.545  -7.822  1.00  0.00     0.000 C 
BRANCH  12  13
HETATM   13  C   UNL     1      28.292  12.101  -8.424  1.00  0.00     0.000 C 
BRANCH  13  14
HETATM   14  C   UNL     1      28.297  11.954  -9.951  1.00  0.00     0.000 C 
BRANCH  14  15
HETATM   15  C   UNL     1      28.803  13.235 -10.625  1.00  0.00    -0.000 C 
BRANCH  15  16
HETATM   16  C   UNL     1      27.676  13.933 -11.394  1.00  0.00    -0.005 C 
HETATM   17  C   UNL     1      28.211  15.107 -12.211  1.00  0.00     0.005 C 
ENDBRANCH  15  16
ENDBRANCH  14  15
ENDBRANCH  13  14
ENDBRANCH  12  13
ENDBRANCH  11  12
ENDBRANCH  10  11
ENDBRANCH   9  10
ENDBRANCH   8   9
ENDBRANCH   7   8
ENDBRANCH   6   7
ENDBRANCH   5   6
ENDBRANCH   3   5
ENDBRANCH   1   3
TORSDOF 13
ENDMDL
MODEL 20
REMARK VINA RESULT:      -4.7     23.208     24.130
REMARK  13 active torsions:
REMARK  status: ('A' for Active; 'I' for Inactive)
REMARK    1  A    between atoms: O_1  and  C_16 
REMARK    2  A    between atoms: C_3  and  C_4 
REMARK    3  A    between atoms: C_3  and  C_5 
REMARK    4  A    between atoms: C_4  and  C_6 
REMARK    5  A    between atoms: C_5  and  C_7 
REMARK    6  A    between atoms: C_6  and  C_8 
REMARK    7  A    between atoms: C_7  and  C_9 
REMARK    8  A    between atoms: C_8  and  C_10 
REMARK    9  A    between atoms: C_9  and  C_11 
REMARK   10  A    between atoms: C_10  and  C_12 
REMARK   11  A    between atoms: C_11  and  C_13 
REMARK   12  A    between atoms: C_12  and  C_14 
REMARK   13  A    between atoms: C_14  and  C_16 
ROOT
HETATM    1  O   UNL     1      28.937  17.152 -10.801  1.00  0.00    -0.776 OA
HETATM    2  H   UNL     1      29.017  16.708  -9.945  1.00  0.00     0.167 HD
ENDROOT
BRANCH   1   3
HETATM    3  C   UNL     1      28.880  16.454 -11.954  1.00  0.00     0.139 C 
HETATM    4  O   UNL     1      29.398  16.909 -12.965  1.00  0.00    -0.650 OA
BRANCH   3   5
HETATM    5  C   UNL     1      28.175  15.122 -11.969  1.00  0.00     0.110 C 
BRANCH   5   6
HETATM    6  C   UNL     1      28.802  14.119 -12.948  1.00  0.00     0.010 C 
BRANCH   6   7
HETATM    7  C   UNL     1      27.730  13.466 -13.829  1.00  0.00     0.001 C 
BRANCH   7   8
HETATM    8  C   UNL     1      28.034  11.981 -14.056  1.00  0.00     0.000 C 
BRANCH   8   9
HETATM    9  C   UNL     1      27.179  11.412 -15.195  1.00  0.00     0.000 C 
BRANCH   9  10
HETATM   10  C   UNL     1      26.021  12.357 -15.539  1.00  0.00     0.000 C 
BRANCH  10  11
HETATM   11  C   UNL     1      24.675  11.625 -15.472  1.00  0.00     0.000 C 
BRANCH  11  12
HETATM   12  C   UNL     1      23.896  12.020 -14.211  1.00  0.00     0.000 C 
BRANCH  12  13
HETATM   13  C   UNL     1      24.393  11.238 -12.990  1.00  0.00     0.000 C 
BRANCH  13  14
HETATM   14  C   UNL     1      24.911  12.186 -11.902  1.00  0.00     0.000 C 
BRANCH  14  15
HETATM   15  C   UNL     1      24.943  11.491 -10.536  1.00  0.00    -0.000 C 
BRANCH  15  16
HETATM   16  C   UNL     1      23.865  12.058  -9.605  1.00  0.00    -0.005 C 
HETATM   17  C   UNL     1      24.373  12.154  -8.168  1.00  0.00     0.005 C 
ENDBRANCH  15  16
ENDBRANCH  14  15
ENDBRANCH  13  14
ENDBRANCH  12  13
ENDBRANCH  11  12
ENDBRANCH  10  11
ENDBRANCH   9  10
ENDBRANCH   8   9
ENDBRANCH   7   8
ENDBRANCH   6   7
ENDBRANCH   5   6
ENDBRANCH   3   5
ENDBRANCH   1   3
TORSDOF 13
ENDMDL
