MODEL 1
REMARK VINA RESULT:      -5.8      0.000      0.000
REMARK  15 active torsions:
REMARK  status: ('A' for Active; 'I' for Inactive)
REMARK    1  A    between atoms: O_1  and  C_18 
REMARK    2  A    between atoms: C_3  and  C_4 
REMARK    3  A    between atoms: C_3  and  C_5 
REMARK    4  A    between atoms: C_4  and  C_6 
REMARK    5  A    between atoms: C_5  and  C_7 
REMARK    6  A    between atoms: C_6  and  C_8 
REMARK    7  A    between atoms: C_7  and  C_9 
REMARK    8  A    between atoms: C_8  and  C_10 
REMARK    9  A    between atoms: C_9  and  C_11 
REMARK   10  A    between atoms: C_10  and  C_12 
REMARK   11  A    between atoms: C_11  and  C_13 
REMARK   12  A    between atoms: C_12  and  C_14 
REMARK   13  A    between atoms: C_13  and  C_15 
REMARK   14  A    between atoms: C_14  and  C_16 
REMARK   15  A    between atoms: C_16  and  C_18 
ROOT
HETATM    1  O   UNL     1       2.409  10.848 -23.497  1.00  0.00    -0.776 OA
HETATM    2  H   UNL     1       1.935  11.149 -24.285  1.00  0.00     0.167 HD
ENDROOT
BRANCH   1   3
HETATM    3  C   UNL     1       3.159   9.725 -23.513  1.00  0.00     0.139 C 
HETATM    4  O   UNL     1       3.720   9.385 -24.544  1.00  0.00    -0.650 OA
BRANCH   3   5
HETATM    5  C   UNL     1       3.287   8.915 -22.249  1.00  0.00     0.110 C 
BRANCH   5   6
HETATM    6  C   UNL     1       3.039   9.739 -20.976  1.00  0.00     0.010 C 
BRANCH   6   7
HETATM    7  C   UNL     1       3.920   9.248 -19.823  1.00  0.00     0.001 C 
BRANCH   7   8
HETATM    8  C   UNL     1       3.354   9.693 -18.469  1.00  0.00     0.000 C 
BRANCH   8   9
HETATM    9  C   UNL     1       3.894   8.818 -17.332  1.00  0.00     0.000 C 
BRANCH   9  10
HETATM   10  C   UNL     1       3.060   8.995 -16.058  1.00  0.00     0.000 C 
BRANCH  10  11
HETATM   11  C   UNL     1       3.942   9.425 -14.879  1.00  0.00     0.000 C 
BRANCH  11  12
HETATM   12  C   UNL     1       3.092   9.749 -13.644  1.00  0.00     0.000 C 
BRANCH  12  13
HETATM   13  C   UNL     1       3.411   8.793 -12.490  1.00  0.00     0.000 C 
BRANCH  13  14
HETATM   14  C   UNL     1       4.675   9.235 -11.742  1.00  0.00     0.000 C 
BRANCH  14  15
HETATM   15  C   UNL     1       4.455   9.205 -10.225  1.00  0.00     0.000 C 
BRANCH  15  16
HETATM   16  C   UNL     1       3.109   9.836  -9.851  1.00  0.00     0.000 C 
BRANCH  16  17
HETATM   17  C   UNL     1       3.076  10.224  -8.368  1.00  0.00    -0.000 C 
BRANCH  17  18
HETATM   18  C   UNL     1       3.842   9.206  -7.516  1.00  0.00    -0.005 C 
HETATM   19  C   UNL     1       3.295   9.159  -6.091  1.00  0.00     0.005 C 
ENDBRANCH  17  18
ENDBRANCH  16  17
ENDBRANCH  15  16
ENDBRANCH  14  15
ENDBRANCH  13  14
ENDBRANCH  12  13
ENDBRANCH  11  12
ENDBRANCH  10  11
ENDBRANCH   9  10
ENDBRANCH   8   9
ENDBRANCH   7   8
ENDBRANCH   6   7
ENDBRANCH   5   6
ENDBRANCH   3   5
ENDBRANCH   1   3
TORSDOF 15
ENDMDL
MODEL 2
REMARK VINA RESULT:      -5.5      5.594     11.389
REMARK  15 active torsions:
REMARK  status: ('A' for Active; 'I' for Inactive)
REMARK    1  A    between atoms: O_1  and  C_18 
REMARK    2  A    between atoms: C_3  and  C_4 
REMARK    3  A    between atoms: C_3  and  C_5 
REMARK    4  A    between atoms: C_4  and  C_6 
REMARK    5  A    between atoms: C_5  and  C_7 
REMARK    6  A    between atoms: C_6  and  C_8 
REMARK    7  A    between atoms: C_7  and  C_9 
REMARK    8  A    between atoms: C_8  and  C_10 
REMARK    9  A    between atoms: C_9  and  C_11 
REMARK   10  A    between atoms: C_10  and  C_12 
REMARK   11  A    between atoms: C_11  and  C_13 
REMARK   12  A    between atoms: C_12  and  C_14 
REMARK   13  A    between atoms: C_13  and  C_15 
REMARK   14  A    between atoms: C_14  and  C_16 
REMARK   15  A    between atoms: C_16  and  C_18 
ROOT
HETATM    1  O   UNL     1       5.590   9.780  -7.895  1.00  0.00    -0.776 OA
HETATM    2  H   UNL     1       6.159   9.276  -8.493  1.00  0.00     0.167 HD
ENDROOT
BRANCH   1   3
HETATM    3  C   UNL     1       4.351   9.350  -7.573  1.00  0.00     0.139 C 
HETATM    4  O   UNL     1       4.010   9.305  -6.400  1.00  0.00    -0.650 OA
BRANCH   3   5
HETATM    5  C   UNL     1       3.412   8.934  -8.676  1.00  0.00     0.110 C 
BRANCH   5   6
HETATM    6  C   UNL     1       3.653   9.693  -9.990  1.00  0.00     0.010 C 
BRANCH   6   7
HETATM    7  C   UNL     1       3.140   8.888 -11.190  1.00  0.00     0.001 C 
BRANCH   7   8
HETATM    8  C   UNL     1       3.774   9.384 -12.496  1.00  0.00     0.000 C 
BRANCH   8   9
HETATM    9  C   UNL     1       2.886  10.435 -13.174  1.00  0.00     0.000 C 
BRANCH   9  10
HETATM   10  C   UNL     1       2.945  10.302 -14.700  1.00  0.00     0.000 C 
BRANCH  10  11
HETATM   11  C   UNL     1       3.575   8.966 -15.113  1.00  0.00     0.000 C 
BRANCH  11  12
HETATM   12  C   UNL     1       3.111   8.547 -16.512  1.00  0.00     0.000 C 
BRANCH  12  13
HETATM   13  C   UNL     1       4.184   8.853 -17.563  1.00  0.00     0.000 C 
BRANCH  13  14
HETATM   14  C   UNL     1       3.832  10.117 -18.357  1.00  0.00     0.000 C 
BRANCH  14  15
HETATM   15  C   UNL     1       3.091   9.765 -19.652  1.00  0.00     0.000 C 
BRANCH  15  16
HETATM   16  C   UNL     1       4.057   9.209 -20.704  1.00  0.00     0.000 C 
BRANCH  16  17
HETATM   17  C   UNL     1       3.301   8.751 -21.957  1.00  0.00    -0.000 C 
BRANCH  17  18
HETATM   18  C   UNL     1       3.240   9.870 -23.003  1.00  0.00    -0.005 C 
HETATM   19  C   UNL     1       3.600   9.348 -24.391  1.00  0.00     0.005 C 
ENDBRANCH  17  18
ENDBRANCH  16  17
ENDBRANCH  15  16
ENDBRANCH  14  15
ENDBRANCH  13  14
ENDBRANCH  12  13
ENDBRANCH  11  12
ENDBRANCH  10  11
ENDBRANCH   9  10
ENDBRANCH   8   9
ENDBRANCH   7   8
ENDBRANCH   6   7
ENDBRANCH   5   6
ENDBRANCH   3   5
ENDBRANCH   1   3
TORSDOF 15
ENDMDL
MODEL 3
REMARK VINA RESULT:      -5.4     19.181     19.903
REMARK  15 active torsions:
REMARK  status: ('A' for Active; 'I' for Inactive)
REMARK    1  A    between atoms: O_1  and  C_18 
REMARK    2  A    between atoms: C_3  and  C_4 
REMARK    3  A    between atoms: C_3  and  C_5 
REMARK    4  A    between atoms: C_4  and  C_6 
REMARK    5  A    between atoms: C_5  and  C_7 
REMARK    6  A    between atoms: C_6  and  C_8 
REMARK    7  A    between atoms: C_7  and  C_9 
REMARK    8  A    between atoms: C_8  and  C_10 
REMARK    9  A    between atoms: C_9  and  C_11 
REMARK   10  A    between atoms: C_10  and  C_12 
REMARK   11  A    between atoms: C_11  and  C_13 
REMARK   12  A    between atoms: C_12  and  C_14 
REMARK   13  A    between atoms: C_13  and  C_15 
REMARK   14  A    between atoms: C_14  and  C_16 
REMARK   15  A    between atoms: C_16  and  C_18 
ROOT
HETATM    1  O   UNL     1      21.762   1.853 -21.650  1.00  0.00    -0.776 OA
HETATM    2  H   UNL     1      22.345   2.159 -22.359  1.00  0.00     0.167 HD
ENDROOT
BRANCH   1   3
HETATM    3  C   UNL     1      21.194   0.629 -21.684  1.00  0.00     0.139 C 
HETATM    4  O   UNL     1      20.369   0.366 -22.548  1.00  0.00    -0.650 OA
BRANCH   3   5
HETATM    5  C   UNL     1      21.593  -0.391 -20.649  1.00  0.00     0.110 C 
BRANCH   5   6
HETATM    6  C   UNL     1      20.966  -0.129 -19.271  1.00  0.00     0.010 C 
BRANCH   6   7
HETATM    7  C   UNL     1      22.040   0.232 -18.239  1.00  0.00     0.001 C 
BRANCH   7   8
HETATM    8  C   UNL     1      21.419   0.915 -17.014  1.00  0.00     0.000 C 
BRANCH   8   9
HETATM    9  C   UNL     1      20.014   0.368 -16.732  1.00  0.00     0.000 C 
BRANCH   9  10
HETATM   10  C   UNL     1      19.980  -0.400 -15.406  1.00  0.00     0.000 C 
BRANCH  10  11
HETATM   11  C   UNL     1      21.246  -0.134 -14.583  1.00  0.00     0.000 C 
BRANCH  11  12
HETATM   12  C   UNL     1      20.895   0.340 -13.168  1.00  0.00     0.000 C 
BRANCH  12  13
HETATM   13  C   UNL     1      22.018   1.202 -12.581  1.00  0.00     0.000 C 
BRANCH  13  14
HETATM   14  C   UNL     1      21.863   1.349 -11.062  1.00  0.00     0.000 C 
BRANCH  14  15
HETATM   15  C   UNL     1      20.998   0.221 -10.486  1.00  0.00     0.000 C 
BRANCH  15  16
HETATM   16  C   UNL     1      21.513  -0.218  -9.110  1.00  0.00     0.000 C 
BRANCH  16  17
HETATM   17  C   UNL     1      21.803   0.995  -8.218  1.00  0.00    -0.000 C 
BRANCH  17  18
HETATM   18  C   UNL     1      21.430   0.707  -6.759  1.00  0.00    -0.005 C 
HETATM   19  C   UNL     1      19.957   0.328  -6.632  1.00  0.00     0.005 C 
ENDBRANCH  17  18
ENDBRANCH  16  17
ENDBRANCH  15  16
ENDBRANCH  14  15
ENDBRANCH  13  14
ENDBRANCH  12  13
ENDBRANCH  11  12
ENDBRANCH  10  11
ENDBRANCH   9  10
ENDBRANCH   8   9
ENDBRANCH   7   8
ENDBRANCH   6   7
ENDBRANCH   5   6
ENDBRANCH   3   5
ENDBRANCH   1   3
TORSDOF 15
ENDMDL
MODEL 4
REMARK VINA RESULT:      -5.1     21.459     22.177
REMARK  15 active torsions:
REMARK  status: ('A' for Active; 'I' for Inactive)
REMARK    1  A    between atoms: O_1  and  C_18 
REMARK    2  A    between atoms: C_3  and  C_4 
REMARK    3  A    between atoms: C_3  and  C_5 
REMARK    4  A    between atoms: C_4  and  C_6 
REMARK    5  A    between atoms: C_5  and  C_7 
REMARK    6  A    between atoms: C_6  and  C_8 
REMARK    7  A    between atoms: C_7  and  C_9 
REMARK    8  A    between atoms: C_8  and  C_10 
REMARK    9  A    between atoms: C_9  and  C_11 
REMARK   10  A    between atoms: C_10  and  C_12 
REMARK   11  A    between atoms: C_11  and  C_13 
REMARK   12  A    between atoms: C_12  and  C_14 
REMARK   13  A    between atoms: C_13  and  C_15 
REMARK   14  A    between atoms: C_14  and  C_16 
REMARK   15  A    between atoms: C_16  and  C_18 
ROOT
HETATM    1  O   UNL     1      26.503  13.182 -22.135  1.00  0.00    -0.776 OA
HETATM    2  H   UNL     1      26.755  13.842 -21.473  1.00  0.00     0.167 HD
ENDROOT
BRANCH   1   3
HETATM    3  C   UNL     1      26.187  11.918 -21.783  1.00  0.00     0.139 C 
HETATM    4  O   UNL     1      26.942  11.001 -22.073  1.00  0.00    -0.650 OA
BRANCH   3   5
HETATM    5  C   UNL     1      24.903  11.667 -21.036  1.00  0.00     0.110 C 
BRANCH   5   6
HETATM    6  C   UNL     1      24.842  12.390 -19.682  1.00  0.00     0.010 C 
BRANCH   6   7
HETATM    7  C   UNL     1      24.121  11.534 -18.634  1.00  0.00     0.001 C 
BRANCH   7   8
HETATM    8  C   UNL     1      25.072  11.138 -17.498  1.00  0.00     0.000 C 
BRANCH   8   9
HETATM    9  C   UNL     1      24.677  11.825 -16.185  1.00  0.00     0.000 C 
BRANCH   9  10
HETATM   10  C   UNL     1      25.538  11.322 -15.021  1.00  0.00     0.000 C 
BRANCH  10  11
HETATM   11  C   UNL     1      26.447  12.436 -14.488  1.00  0.00     0.000 C 
BRANCH  11  12
HETATM   12  C   UNL     1      26.055  12.832 -13.059  1.00  0.00     0.000 C 
BRANCH  12  13
HETATM   13  C   UNL     1      24.761  12.131 -12.630  1.00  0.00     0.000 C 
BRANCH  13  14
HETATM   14  C   UNL     1      24.971  11.331 -11.338  1.00  0.00     0.000 C 
BRANCH  14  15
HETATM   15  C   UNL     1      26.221  11.811 -10.591  1.00  0.00     0.000 C 
BRANCH  15  16
HETATM   16  C   UNL     1      26.099  11.543  -9.086  1.00  0.00     0.000 C 
BRANCH  16  17
HETATM   17  C   UNL     1      24.637  11.626  -8.630  1.00  0.00    -0.000 C 
BRANCH  17  18
HETATM   18  C   UNL     1      24.544  12.016  -7.150  1.00  0.00    -0.005 C 
HETATM   19  C   UNL     1      25.925  12.313  -6.571  1.00  0.00     0.005 C 
ENDBRANCH  17  18
ENDBRANCH  16  17
ENDBRANCH  15  16
ENDBRANCH  14  15
ENDBRANCH  13  14
ENDBRANCH  12  13
ENDBRANCH  11  12
ENDBRANCH  10  11
ENDBRANCH   9  10
ENDBRANCH   8   9
ENDBRANCH   7   8
ENDBRANCH   6   7
ENDBRANCH   5   6
ENDBRANCH   3   5
ENDBRANCH   1   3
TORSDOF 15
ENDMDL
MODEL 5
REMARK VINA RESULT:      -5.1     22.374     24.942
REMARK  15 active torsions:
REMARK  status: ('A' for Active; 'I' for Inactive)
REMARK    1  A    between atoms: O_1  and  C_18 
REMARK    2  A    between atoms: C_3  and  C_4 
REMARK    3  A    between atoms: C_3  and  C_5 
REMARK    4  A    between atoms: C_4  and  C_6 
REMARK    5  A    between atoms: C_5  and  C_7 
REMARK    6  A    between atoms: C_6  and  C_8 
REMARK    7  A    between atoms: C_7  and  C_9 
REMARK    8  A    between atoms: C_8  and  C_10 
REMARK    9  A    between atoms: C_9  and  C_11 
REMARK   10  A    between atoms: C_10  and  C_12 
REMARK   11  A    between atoms: C_11  and  C_13 
REMARK   12  A    between atoms: C_12  and  C_14 
REMARK   13  A    between atoms: C_13  and  C_15 
REMARK   14  A    between atoms: C_14  and  C_16 
REMARK   15  A    between atoms: C_16  and  C_18 
ROOT
HETATM    1  O   UNL     1      27.173  14.184  -7.581  1.00  0.00    -0.776 OA
HETATM    2  H   UNL     1      26.763  15.037  -7.379  1.00  0.00     0.167 HD
ENDROOT
BRANCH   1   3
HETATM    3  C   UNL     1      27.168  13.172  -6.688  1.00  0.00     0.139 C 
HETATM    4  O   UNL     1      27.572  13.363  -5.550  1.00  0.00    -0.650 OA
BRANCH   3   5
HETATM    5  C   UNL     1      26.660  11.820  -7.120  1.00  0.00     0.110 C 
BRANCH   5   6
HETATM    6  C   UNL     1      25.141  11.664  -6.947  1.00  0.00     0.010 C 
BRANCH   6   7
HETATM    7  C   UNL     1      24.385  12.347  -8.093  1.00  0.00     0.001 C 
BRANCH   7   8
HETATM    8  C   UNL     1      24.161  11.377  -9.259  1.00  0.00     0.000 C 
BRANCH   8   9
HETATM    9  C   UNL     1      24.451  12.056 -10.603  1.00  0.00     0.000 C 
BRANCH   9  10
HETATM   10  C   UNL     1      25.170  11.098 -11.560  1.00  0.00     0.000 C 
BRANCH  10  11
HETATM   11  C   UNL     1      24.703  11.310 -13.005  1.00  0.00     0.000 C 
BRANCH  11  12
HETATM   12  C   UNL     1      25.895  11.360 -13.967  1.00  0.00     0.000 C 
BRANCH  12  13
HETATM   13  C   UNL     1      25.611  12.298 -15.147  1.00  0.00     0.000 C 
BRANCH  13  14
HETATM   14  C   UNL     1      26.032  11.654 -16.474  1.00  0.00     0.000 C 
BRANCH  14  15
HETATM   15  C   UNL     1      24.825  11.042 -17.196  1.00  0.00     0.000 C 
BRANCH  15  16
HETATM   16  C   UNL     1      24.280  11.998 -18.263  1.00  0.00     0.000 C 
BRANCH  16  17
HETATM   17  C   UNL     1      24.600  11.488 -19.674  1.00  0.00    -0.000 C 
BRANCH  17  18
HETATM   18  C   UNL     1      25.748  12.287 -20.300  1.00  0.00    -0.005 C 
HETATM   19  C   UNL     1      25.708  12.206 -21.824  1.00  0.00     0.005 C 
ENDBRANCH  17  18
ENDBRANCH  16  17
ENDBRANCH  15  16
ENDBRANCH  14  15
ENDBRANCH  13  14
ENDBRANCH  12  13
ENDBRANCH  11  12
ENDBRANCH  10  11
ENDBRANCH   9  10
ENDBRANCH   8   9
ENDBRANCH   7   8
ENDBRANCH   6   7
ENDBRANCH   5   6
ENDBRANCH   3   5
ENDBRANCH   1   3
TORSDOF 15
ENDMDL
MODEL 6
REMARK VINA RESULT:      -5.1     21.726     22.699
REMARK  15 active torsions:
REMARK  status: ('A' for Active; 'I' for Inactive)
REMARK    1  A    between atoms: O_1  and  C_18 
REMARK    2  A    between atoms: C_3  and  C_4 
REMARK    3  A    between atoms: C_3  and  C_5 
REMARK    4  A    between atoms: C_4  and  C_6 
REMARK    5  A    between atoms: C_5  and  C_7 
REMARK    6  A    between atoms: C_6  and  C_8 
REMARK    7  A    between atoms: C_7  and  C_9 
REMARK    8  A    between atoms: C_8  and  C_10 
REMARK    9  A    between atoms: C_9  and  C_11 
REMARK   10  A    between atoms: C_10  and  C_12 
REMARK   11  A    between atoms: C_11  and  C_13 
REMARK   12  A    between atoms: C_12  and  C_14 
REMARK   13  A    between atoms: C_13  and  C_15 
REMARK   14  A    between atoms: C_14  and  C_16 
REMARK   15  A    between atoms: C_16  and  C_18 
ROOT
HETATM    1  O   UNL     1      28.001  13.553 -15.224  1.00  0.00    -0.776 OA
HETATM    2  H   UNL     1      27.517  13.837 -14.436  1.00  0.00     0.167 HD
ENDROOT
BRANCH   1   3
HETATM    3  C   UNL     1      27.365  13.301 -16.388  1.00  0.00     0.139 C 
HETATM    4  O   UNL     1      27.041  14.228 -17.117  1.00  0.00    -0.650 OA
BRANCH   3   5
HETATM    5  C   UNL     1      27.068  11.872 -16.763  1.00  0.00     0.110 C 
BRANCH   5   6
HETATM    6  C   UNL     1      25.963  11.240 -15.903  1.00  0.00     0.010 C 
BRANCH   6   7
HETATM    7  C   UNL     1      24.736  12.154 -15.827  1.00  0.00     0.001 C 
BRANCH   7   8
HETATM    8  C   UNL     1      24.223  12.268 -14.386  1.00  0.00     0.000 C 
BRANCH   8   9
HETATM    9  C   UNL     1      24.277  10.911 -13.673  1.00  0.00     0.000 C 
BRANCH   9  10
HETATM   10  C   UNL     1      25.205  10.966 -12.455  1.00  0.00     0.000 C 
BRANCH  10  11
HETATM   11  C   UNL     1      24.891  12.185 -11.579  1.00  0.00     0.000 C 
BRANCH  11  12
HETATM   12  C   UNL     1      25.131  11.876 -10.097  1.00  0.00     0.000 C 
BRANCH  12  13
HETATM   13  C   UNL     1      23.842  12.040  -9.284  1.00  0.00     0.000 C 
BRANCH  13  14
HETATM   14  C   UNL     1      24.154  12.344  -7.813  1.00  0.00     0.000 C 
BRANCH  14  15
HETATM   15  C   UNL     1      25.665  12.328  -7.556  1.00  0.00     0.000 C 
BRANCH  15  16
HETATM   16  C   UNL     1      25.967  12.163  -6.062  1.00  0.00     0.000 C 
BRANCH  16  17
HETATM   17  C   UNL     1      24.856  11.374  -5.360  1.00  0.00    -0.000 C 
BRANCH  17  18
HETATM   18  C   UNL     1      24.408  12.079  -4.075  1.00  0.00    -0.005 C 
HETATM   19  C   UNL     1      25.608  12.517  -3.240  1.00  0.00     0.005 C 
ENDBRANCH  17  18
ENDBRANCH  16  17
ENDBRANCH  15  16
ENDBRANCH  14  15
ENDBRANCH  13  14
ENDBRANCH  12  13
ENDBRANCH  11  12
ENDBRANCH  10  11
ENDBRANCH   9  10
ENDBRANCH   8   9
ENDBRANCH   7   8
ENDBRANCH   6   7
ENDBRANCH   5   6
ENDBRANCH   3   5
ENDBRANCH   1   3
TORSDOF 15
ENDMDL
MODEL 7
REMARK VINA RESULT:      -5.0     22.285     24.780
REMARK  15 active torsions:
REMARK  status: ('A' for Active; 'I' for Inactive)
REMARK    1  A    between atoms: O_1  and  C_18 
REMARK    2  A    between atoms: C_3  and  C_4 
REMARK    3  A    between atoms: C_3  and  C_5 
REMARK    4  A    between atoms: C_4  and  C_6 
REMARK    5  A    between atoms: C_5  and  C_7 
REMARK    6  A    between atoms: C_6  and  C_8 
REMARK    7  A    between atoms: C_7  and  C_9 
REMARK    8  A    between atoms: C_8  and  C_10 
REMARK    9  A    between atoms: C_9  and  C_11 
REMARK   10  A    between atoms: C_10  and  C_12 
REMARK   11  A    between atoms: C_11  and  C_13 
REMARK   12  A    between atoms: C_12  and  C_14 
REMARK   13  A    between atoms: C_13  and  C_15 
REMARK   14  A    between atoms: C_14  and  C_16 
REMARK   15  A    between atoms: C_16  and  C_18 
ROOT
HETATM    1  O   UNL     1      27.830  13.692 -10.671  1.00  0.00    -0.776 OA
HETATM    2  H   UNL     1      27.549  14.485 -11.149  1.00  0.00     0.167 HD
ENDROOT
BRANCH   1   3
HETATM    3  C   UNL     1      27.017  13.078  -9.786  1.00  0.00     0.139 C 
HETATM    4  O   UNL     1      27.180  13.255  -8.587  1.00  0.00    -0.650 OA
BRANCH   3   5
HETATM    5  C   UNL     1      25.919  12.183 -10.301  1.00  0.00     0.110 C 
BRANCH   5   6
HETATM    6  C   UNL     1      26.400  11.198 -11.378  1.00  0.00     0.010 C 
BRANCH   6   7
HETATM    7  C   UNL     1      25.255  10.814 -12.321  1.00  0.00     0.001 C 
BRANCH   7   8
HETATM    8  C   UNL     1      24.454  12.050 -12.746  1.00  0.00     0.000 C 
BRANCH   8   9
HETATM    9  C   UNL     1      23.964  11.919 -14.193  1.00  0.00     0.000 C 
BRANCH   9  10
HETATM   10  C   UNL     1      25.038  12.386 -15.182  1.00  0.00     0.000 C 
BRANCH  10  11
HETATM   11  C   UNL     1      25.630  11.200 -15.953  1.00  0.00     0.000 C 
BRANCH  11  12
HETATM   12  C   UNL     1      24.813  10.900 -17.215  1.00  0.00     0.000 C 
BRANCH  12  13
HETATM   13  C   UNL     1      24.857  12.080 -18.193  1.00  0.00     0.000 C 
BRANCH  13  14
HETATM   14  C   UNL     1      23.846  11.890 -19.330  1.00  0.00     0.000 C 
BRANCH  14  15
HETATM   15  C   UNL     1      24.484  12.197 -20.691  1.00  0.00     0.000 C 
BRANCH  15  16
HETATM   16  C   UNL     1      25.564  11.166 -21.037  1.00  0.00     0.000 C 
BRANCH  16  17
HETATM   17  C   UNL     1      26.508  11.701 -22.120  1.00  0.00    -0.000 C 
BRANCH  17  18
HETATM   18  C   UNL     1      25.786  11.827 -23.467  1.00  0.00    -0.005 C 
HETATM   19  C   UNL     1      26.677  11.364 -24.615  1.00  0.00     0.005 C 
ENDBRANCH  17  18
ENDBRANCH  16  17
ENDBRANCH  15  16
ENDBRANCH  14  15
ENDBRANCH  13  14
ENDBRANCH  12  13
ENDBRANCH  11  12
ENDBRANCH  10  11
ENDBRANCH   9  10
ENDBRANCH   8   9
ENDBRANCH   7   8
ENDBRANCH   6   7
ENDBRANCH   5   6
ENDBRANCH   3   5
ENDBRANCH   1   3
TORSDOF 15
ENDMDL
MODEL 8
REMARK VINA RESULT:      -5.0     22.638     25.042
REMARK  15 active torsions:
REMARK  status: ('A' for Active; 'I' for Inactive)
REMARK    1  A    between atoms: O_1  and  C_18 
REMARK    2  A    between atoms: C_3  and  C_4 
REMARK    3  A    between atoms: C_3  and  C_5 
REMARK    4  A    between atoms: C_4  and  C_6 
REMARK    5  A    between atoms: C_5  and  C_7 
REMARK    6  A    between atoms: C_6  and  C_8 
REMARK    7  A    between atoms: C_7  and  C_9 
REMARK    8  A    between atoms: C_8  and  C_10 
REMARK    9  A    between atoms: C_9  and  C_11 
REMARK   10  A    between atoms: C_10  and  C_12 
REMARK   11  A    between atoms: C_11  and  C_13 
REMARK   12  A    between atoms: C_12  and  C_14 
REMARK   13  A    between atoms: C_13  and  C_15 
REMARK   14  A    between atoms: C_14  and  C_16 
REMARK   15  A    between atoms: C_16  and  C_18 
ROOT
HETATM    1  O   UNL     1      28.430  15.568  -7.729  1.00  0.00    -0.776 OA
HETATM    2  H   UNL     1      27.512  15.833  -7.881  1.00  0.00     0.167 HD
ENDROOT
BRANCH   1   3
HETATM    3  C   UNL     1      28.860  14.321  -8.018  1.00  0.00     0.139 C 
HETATM    4  O   UNL     1      29.822  14.167  -8.757  1.00  0.00    -0.650 OA
BRANCH   3   5
HETATM    5  C   UNL     1      28.140  13.143  -7.415  1.00  0.00     0.110 C 
BRANCH   5   6
HETATM    6  C   UNL     1      26.626  13.367  -7.278  1.00  0.00     0.010 C 
BRANCH   6   7
HETATM    7  C   UNL     1      25.910  12.063  -6.909  1.00  0.00     0.001 C 
BRANCH   7   8
HETATM    8  C   UNL     1      25.600  11.233  -8.161  1.00  0.00     0.000 C 
BRANCH   8   9
HETATM    9  C   UNL     1      24.188  11.528  -8.682  1.00  0.00     0.000 C 
BRANCH   9  10
HETATM   10  C   UNL     1      24.236  12.100 -10.104  1.00  0.00     0.000 C 
BRANCH  10  11
HETATM   11  C   UNL     1      25.570  11.773 -10.784  1.00  0.00     0.000 C 
BRANCH  11  12
HETATM   12  C   UNL     1      25.364  10.837 -11.981  1.00  0.00     0.000 C 
BRANCH  12  13
HETATM   13  C   UNL     1      25.415  11.613 -13.302  1.00  0.00     0.000 C 
BRANCH  13  14
HETATM   14  C   UNL     1      24.058  11.574 -14.016  1.00  0.00     0.000 C 
BRANCH  14  15
HETATM   15  C   UNL     1      24.141  12.240 -15.394  1.00  0.00     0.000 C 
BRANCH  15  16
HETATM   16  C   UNL     1      24.964  11.389 -16.367  1.00  0.00     0.000 C 
BRANCH  16  17
HETATM   17  C   UNL     1      25.701  12.271 -17.383  1.00  0.00    -0.000 C 
BRANCH  17  18
HETATM   18  C   UNL     1      25.314  11.898 -18.818  1.00  0.00    -0.005 C 
HETATM   19  C   UNL     1      23.797  11.852 -18.986  1.00  0.00     0.005 C 
ENDBRANCH  17  18
ENDBRANCH  16  17
ENDBRANCH  15  16
ENDBRANCH  14  15
ENDBRANCH  13  14
ENDBRANCH  12  13
ENDBRANCH  11  12
ENDBRANCH  10  11
ENDBRANCH   9  10
ENDBRANCH   8   9
ENDBRANCH   7   8
ENDBRANCH   6   7
ENDBRANCH   5   6
ENDBRANCH   3   5
ENDBRANCH   1   3
TORSDOF 15
ENDMDL
MODEL 9
REMARK VINA RESULT:      -5.0     22.136     23.069
REMARK  15 active torsions:
REMARK  status: ('A' for Active; 'I' for Inactive)
REMARK    1  A    between atoms: O_1  and  C_18 
REMARK    2  A    between atoms: C_3  and  C_4 
REMARK    3  A    between atoms: C_3  and  C_5 
REMARK    4  A    between atoms: C_4  and  C_6 
REMARK    5  A    between atoms: C_5  and  C_7 
REMARK    6  A    between atoms: C_6  and  C_8 
REMARK    7  A    between atoms: C_7  and  C_9 
REMARK    8  A    between atoms: C_8  and  C_10 
REMARK    9  A    between atoms: C_9  and  C_11 
REMARK   10  A    between atoms: C_10  and  C_12 
REMARK   11  A    between atoms: C_11  and  C_13 
REMARK   12  A    between atoms: C_12  and  C_14 
REMARK   13  A    between atoms: C_13  and  C_15 
REMARK   14  A    between atoms: C_14  and  C_16 
REMARK   15  A    between atoms: C_16  and  C_18 
ROOT
HETATM    1  O   UNL     1      28.596  13.956 -18.726  1.00  0.00    -0.776 OA
HETATM    2  H   UNL     1      29.455  14.379 -18.865  1.00  0.00     0.167 HD
ENDROOT
BRANCH   1   3
HETATM    3  C   UNL     1      28.041  13.879 -17.497  1.00  0.00     0.139 C 
HETATM    4  O   UNL     1      27.454  14.847 -17.035  1.00  0.00    -0.650 OA
BRANCH   3   5
HETATM    5  C   UNL     1      28.159  12.593 -16.722  1.00  0.00     0.110 C 
BRANCH   5   6
HETATM    6  C   UNL     1      27.055  12.421 -15.667  1.00  0.00     0.010 C 
BRANCH   6   7
HETATM    7  C   UNL     1      26.107  11.277 -16.043  1.00  0.00     0.001 C 
BRANCH   7   8
HETATM    8  C   UNL     1      24.712  11.811 -16.391  1.00  0.00     0.000 C 
BRANCH   8   9
HETATM    9  C   UNL     1      24.028  12.411 -15.157  1.00  0.00     0.000 C 
BRANCH   9  10
HETATM   10  C   UNL     1      23.884  11.365 -14.045  1.00  0.00     0.000 C 
BRANCH  10  11
HETATM   11  C   UNL     1      24.381  11.916 -12.703  1.00  0.00     0.000 C 
BRANCH  11  12
HETATM   12  C   UNL     1      25.514  11.052 -12.138  1.00  0.00     0.000 C 
BRANCH  12  13
HETATM   13  C   UNL     1      25.865  11.472 -10.707  1.00  0.00     0.000 C 
BRANCH  13  14
HETATM   14  C   UNL     1      24.667  12.140 -10.020  1.00  0.00     0.000 C 
BRANCH  14  15
HETATM   15  C   UNL     1      24.072  11.228  -8.940  1.00  0.00     0.000 C 
BRANCH  15  16
HETATM   16  C   UNL     1      24.976  11.178  -7.703  1.00  0.00     0.000 C 
BRANCH  16  17
HETATM   17  C   UNL     1      25.627  12.542  -7.442  1.00  0.00    -0.000 C 
BRANCH  17  18
HETATM   18  C   UNL     1      27.130  12.393  -7.179  1.00  0.00    -0.005 C 
HETATM   19  C   UNL     1      27.739  13.709  -6.705  1.00  0.00     0.005 C 
ENDBRANCH  17  18
ENDBRANCH  16  17
ENDBRANCH  15  16
ENDBRANCH  14  15
ENDBRANCH  13  14
ENDBRANCH  12  13
ENDBRANCH  11  12
ENDBRANCH  10  11
ENDBRANCH   9  10
ENDBRANCH   8   9
ENDBRANCH   7   8
ENDBRANCH   6   7
ENDBRANCH   5   6
ENDBRANCH   3   5
ENDBRANCH   1   3
TORSDOF 15
ENDMDL
MODEL 10
REMARK VINA RESULT:      -4.8     22.923     24.451
REMARK  15 active torsions:
REMARK  status: ('A' for Active; 'I' for Inactive)
REMARK    1  A    between atoms: O_1  and  C_18 
REMARK    2  A    between atoms: C_3  and  C_4 
REMARK    3  A    between atoms: C_3  and  C_5 
REMARK    4  A    between atoms: C_4  and  C_6 
REMARK    5  A    between atoms: C_5  and  C_7 
REMARK    6  A    between atoms: C_6  and  C_8 
REMARK    7  A    between atoms: C_7  and  C_9 
REMARK    8  A    between atoms: C_8  and  C_10 
REMARK    9  A    between atoms: C_9  and  C_11 
REMARK   10  A    between atoms: C_10  and  C_12 
REMARK   11  A    between atoms: C_11  and  C_13 
REMARK   12  A    between atoms: C_12  and  C_14 
REMARK   13  A    between atoms: C_13  and  C_15 
REMARK   14  A    between atoms: C_14  and  C_16 
REMARK   15  A    between atoms: C_16  and  C_18 
ROOT
HETATM    1  O   UNL     1      28.968   9.996 -15.366  1.00  0.00    -0.776 OA
HETATM    2  H   UNL     1      28.140  10.346 -15.009  1.00  0.00     0.167 HD
ENDROOT
BRANCH   1   3
HETATM    3  C   UNL     1      29.525  10.508 -16.484  1.00  0.00     0.139 C 
HETATM    4  O   UNL     1      29.829   9.765 -17.406  1.00  0.00    -0.650 OA
BRANCH   3   5
HETATM    5  C   UNL     1      29.760  11.994 -16.568  1.00  0.00     0.110 C 
BRANCH   5   6
HETATM    6  C   UNL     1      28.522  12.822 -16.190  1.00  0.00     0.010 C 
BRANCH   6   7
HETATM    7  C   UNL     1      28.911  14.032 -15.333  1.00  0.00     0.001 C 
BRANCH   7   8
HETATM    8  C   UNL     1      28.029  14.127 -14.083  1.00  0.00     0.000 C 
BRANCH   8   9
HETATM    9  C   UNL     1      27.795  12.742 -13.467  1.00  0.00     0.000 C 
BRANCH   9  10
HETATM   10  C   UNL     1      26.895  12.835 -12.229  1.00  0.00     0.000 C 
BRANCH  10  11
HETATM   11  C   UNL     1      26.740  11.465 -11.558  1.00  0.00     0.000 C 
BRANCH  11  12
HETATM   12  C   UNL     1      25.378  10.842 -11.883  1.00  0.00     0.000 C 
BRANCH  12  13
HETATM   13  C   UNL     1      24.455  11.861 -12.561  1.00  0.00     0.000 C 
BRANCH  13  14
HETATM   14  C   UNL     1      23.960  11.338 -13.916  1.00  0.00     0.000 C 
BRANCH  14  15
HETATM   15  C   UNL     1      24.402  12.263 -15.057  1.00  0.00     0.000 C 
BRANCH  15  16
HETATM   16  C   UNL     1      25.055  11.463 -16.190  1.00  0.00     0.000 C 
BRANCH  16  17
HETATM   17  C   UNL     1      24.970  12.223 -17.519  1.00  0.00    -0.000 C 
BRANCH  17  18
HETATM   18  C   UNL     1      24.136  11.447 -18.544  1.00  0.00    -0.005 C 
HETATM   19  C   UNL     1      24.326  12.010 -19.950  1.00  0.00     0.005 C 
ENDBRANCH  17  18
ENDBRANCH  16  17
ENDBRANCH  15  16
ENDBRANCH  14  15
ENDBRANCH  13  14
ENDBRANCH  12  13
ENDBRANCH  11  12
ENDBRANCH  10  11
ENDBRANCH   9  10
ENDBRANCH   8   9
ENDBRANCH   7   8
ENDBRANCH   6   7
ENDBRANCH   5   6
ENDBRANCH   3   5
ENDBRANCH   1   3
TORSDOF 15
ENDMDL
MODEL 11
REMARK VINA RESULT:      -4.8     22.067     22.841
REMARK  15 active torsions:
REMARK  status: ('A' for Active; 'I' for Inactive)
REMARK    1  A    between atoms: O_1  and  C_18 
REMARK    2  A    between atoms: C_3  and  C_4 
REMARK    3  A    between atoms: C_3  and  C_5 
REMARK    4  A    between atoms: C_4  and  C_6 
REMARK    5  A    between atoms: C_5  and  C_7 
REMARK    6  A    between atoms: C_6  and  C_8 
REMARK    7  A    between atoms: C_7  and  C_9 
REMARK    8  A    between atoms: C_8  and  C_10 
REMARK    9  A    between atoms: C_9  and  C_11 
REMARK   10  A    between atoms: C_10  and  C_12 
REMARK   11  A    between atoms: C_11  and  C_13 
REMARK   12  A    between atoms: C_12  and  C_14 
REMARK   13  A    between atoms: C_13  and  C_15 
REMARK   14  A    between atoms: C_14  and  C_16 
REMARK   15  A    between atoms: C_16  and  C_18 
ROOT
HETATM    1  O   UNL     1      24.028  12.801 -17.179  1.00  0.00    -0.776 OA
HETATM    2  H   UNL     1      23.429  12.597 -16.447  1.00  0.00     0.167 HD
ENDROOT
BRANCH   1   3
HETATM    3  C   UNL     1      24.327  11.880 -18.121  1.00  0.00     0.139 C 
HETATM    4  O   UNL     1      24.783  10.796 -17.787  1.00  0.00    -0.650 OA
BRANCH   3   5
HETATM    5  C   UNL     1      24.088  12.215 -19.570  1.00  0.00     0.110 C 
BRANCH   5   6
HETATM    6  C   UNL     1      25.011  11.445 -20.527  1.00  0.00     0.010 C 
BRANCH   6   7
HETATM    7  C   UNL     1      26.433  12.013 -20.494  1.00  0.00     0.001 C 
BRANCH   7   8
HETATM    8  C   UNL     1      27.473  10.890 -20.405  1.00  0.00     0.000 C 
BRANCH   8   9
HETATM    9  C   UNL     1      28.591  11.251 -19.419  1.00  0.00     0.000 C 
BRANCH   9  10
HETATM   10  C   UNL     1      28.120  12.313 -18.419  1.00  0.00     0.000 C 
BRANCH  10  11
HETATM   11  C   UNL     1      28.091  11.750 -16.993  1.00  0.00     0.000 C 
BRANCH  11  12
HETATM   12  C   UNL     1      27.353  12.699 -16.041  1.00  0.00     0.000 C 
BRANCH  12  13
HETATM   13  C   UNL     1      27.603  12.315 -14.578  1.00  0.00     0.000 C 
BRANCH  13  14
HETATM   14  C   UNL     1      26.416  11.529 -14.006  1.00  0.00     0.000 C 
BRANCH  14  15
HETATM   15  C   UNL     1      25.200  12.439 -13.800  1.00  0.00     0.000 C 
BRANCH  15  16
HETATM   16  C   UNL     1      24.295  11.904 -12.685  1.00  0.00     0.000 C 
BRANCH  16  17
HETATM   17  C   UNL     1      25.071  11.753 -11.371  1.00  0.00    -0.000 C 
BRANCH  17  18
HETATM   18  C   UNL     1      24.187  12.099 -10.168  1.00  0.00    -0.005 C 
HETATM   19  C   UNL     1      24.921  11.842  -8.854  1.00  0.00     0.005 C 
ENDBRANCH  17  18
ENDBRANCH  16  17
ENDBRANCH  15  16
ENDBRANCH  14  15
ENDBRANCH  13  14
ENDBRANCH  12  13
ENDBRANCH  11  12
ENDBRANCH  10  11
ENDBRANCH   9  10
ENDBRANCH   8   9
ENDBRANCH   7   8
ENDBRANCH   6   7
ENDBRANCH   5   6
ENDBRANCH   3   5
ENDBRANCH   1   3
TORSDOF 15
ENDMDL
MODEL 12
REMARK VINA RESULT:      -4.8     24.051     25.213
REMARK  15 active torsions:
REMARK  status: ('A' for Active; 'I' for Inactive)
REMARK    1  A    between atoms: O_1  and  C_18 
REMARK    2  A    between atoms: C_3  and  C_4 
REMARK    3  A    between atoms: C_3  and  C_5 
REMARK    4  A    between atoms: C_4  and  C_6 
REMARK    5  A    between atoms: C_5  and  C_7 
REMARK    6  A    between atoms: C_6  and  C_8 
REMARK    7  A    between atoms: C_7  and  C_9 
REMARK    8  A    between atoms: C_8  and  C_10 
REMARK    9  A    between atoms: C_9  and  C_11 
REMARK   10  A    between atoms: C_10  and  C_12 
REMARK   11  A    between atoms: C_11  and  C_13 
REMARK   12  A    between atoms: C_12  and  C_14 
REMARK   13  A    between atoms: C_13  and  C_15 
REMARK   14  A    between atoms: C_14  and  C_16 
REMARK   15  A    between atoms: C_16  and  C_18 
ROOT
HETATM    1  O   UNL     1      25.570  10.571 -17.020  1.00  0.00    -0.776 OA
HETATM    2  H   UNL     1      25.032   9.801 -16.789  1.00  0.00     0.167 HD
ENDROOT
BRANCH   1   3
HETATM    3  C   UNL     1      25.094  11.827 -16.888  1.00  0.00     0.139 C 
HETATM    4  O   UNL     1      25.365  12.477 -15.889  1.00  0.00    -0.650 OA
BRANCH   3   5
HETATM    5  C   UNL     1      24.235  12.402 -17.984  1.00  0.00     0.110 C 
BRANCH   5   6
HETATM    6  C   UNL     1      24.035  11.436 -19.163  1.00  0.00     0.010 C 
BRANCH   6   7
HETATM    7  C   UNL     1      24.542  12.053 -20.471  1.00  0.00     0.001 C 
BRANCH   7   8
HETATM    8  C   UNL     1      25.481  11.088 -21.206  1.00  0.00     0.000 C 
BRANCH   8   9
HETATM    9  C   UNL     1      26.933  11.277 -20.749  1.00  0.00     0.000 C 
BRANCH   9  10
HETATM   10  C   UNL     1      27.245  12.759 -20.509  1.00  0.00     0.000 C 
BRANCH  10  11
HETATM   11  C   UNL     1      27.808  12.981 -19.100  1.00  0.00     0.000 C 
BRANCH  11  12
HETATM   12  C   UNL     1      28.461  14.363 -18.979  1.00  0.00     0.000 C 
BRANCH  12  13
HETATM   13  C   UNL     1      28.897  14.888 -20.351  1.00  0.00     0.000 C 
BRANCH  13  14
HETATM   14  C   UNL     1      29.004  16.418 -20.346  1.00  0.00     0.000 C 
BRANCH  14  15
HETATM   15  C   UNL     1      29.862  16.907 -19.173  1.00  0.00     0.000 C 
BRANCH  15  16
HETATM   16  C   UNL     1      29.244  18.147 -18.518  1.00  0.00     0.000 C 
BRANCH  16  17
HETATM   17  C   UNL     1      28.597  17.794 -17.174  1.00  0.00    -0.000 C 
BRANCH  17  18
HETATM   18  C   UNL     1      29.624  17.187 -16.211  1.00  0.00    -0.005 C 
HETATM   19  C   UNL     1      29.131  15.858 -15.646  1.00  0.00     0.005 C 
ENDBRANCH  17  18
ENDBRANCH  16  17
ENDBRANCH  15  16
ENDBRANCH  14  15
ENDBRANCH  13  14
ENDBRANCH  12  13
ENDBRANCH  11  12
ENDBRANCH  10  11
ENDBRANCH   9  10
ENDBRANCH   8   9
ENDBRANCH   7   8
ENDBRANCH   6   7
ENDBRANCH   5   6
ENDBRANCH   3   5
ENDBRANCH   1   3
TORSDOF 15
ENDMDL
MODEL 13
REMARK VINA RESULT:      -4.8     51.443     52.591
REMARK  15 active torsions:
REMARK  status: ('A' for Active; 'I' for Inactive)
REMARK    1  A    between atoms: O_1  and  C_18 
REMARK    2  A    between atoms: C_3  and  C_4 
REMARK    3  A    between atoms: C_3  and  C_5 
REMARK    4  A    between atoms: C_4  and  C_6 
REMARK    5  A    between atoms: C_5  and  C_7 
REMARK    6  A    between atoms: C_6  and  C_8 
REMARK    7  A    between atoms: C_7  and  C_9 
REMARK    8  A    between atoms: C_8  and  C_10 
REMARK    9  A    between atoms: C_9  and  C_11 
REMARK   10  A    between atoms: C_10  and  C_12 
REMARK   11  A    between atoms: C_11  and  C_13 
REMARK   12  A    between atoms: C_12  and  C_14 
REMARK   13  A    between atoms: C_13  and  C_15 
REMARK   14  A    between atoms: C_14  and  C_16 
REMARK   15  A    between atoms: C_16  and  C_18 
ROOT
HETATM    1  O   UNL     1      49.205 -17.172 -17.653  1.00  0.00    -0.776 OA
HETATM    2  H   UNL     1      49.899 -17.655 -18.121  1.00  0.00     0.167 HD
ENDROOT
BRANCH   1   3
HETATM    3  C   UNL     1      48.050 -17.770 -17.292  1.00  0.00     0.139 C 
HETATM    4  O   UNL     1      47.149 -17.893 -18.110  1.00  0.00    -0.650 OA
BRANCH   3   5
HETATM    5  C   UNL     1      47.899 -18.276 -15.881  1.00  0.00     0.110 C 
BRANCH   5   6
HETATM    6  C   UNL     1      49.228 -18.724 -15.255  1.00  0.00     0.010 C 
BRANCH   6   7
HETATM    7  C   UNL     1      49.153 -18.696 -13.725  1.00  0.00     0.001 C 
BRANCH   7   8
HETATM    8  C   UNL     1      48.677 -20.046 -13.172  1.00  0.00     0.000 C 
BRANCH   8   9
HETATM    9  C   UNL     1      48.292 -19.930 -11.693  1.00  0.00     0.000 C 
BRANCH   9  10
HETATM   10  C   UNL     1      48.785 -18.606 -11.098  1.00  0.00     0.000 C 
BRANCH  10  11
HETATM   11  C   UNL     1      49.246 -18.792  -9.647  1.00  0.00     0.000 C 
BRANCH  11  12
HETATM   12  C   UNL     1      48.844 -20.172  -9.114  1.00  0.00     0.000 C 
BRANCH  12  13
HETATM   13  C   UNL     1      47.979 -20.046  -7.855  1.00  0.00     0.000 C 
BRANCH  13  14
HETATM   14  C   UNL     1      47.413 -18.628  -7.716  1.00  0.00     0.000 C 
BRANCH  14  15
HETATM   15  C   UNL     1      45.887 -18.627  -7.867  1.00  0.00     0.000 C 
BRANCH  15  16
HETATM   16  C   UNL     1      45.463 -17.942  -9.171  1.00  0.00     0.000 C 
BRANCH  16  17
HETATM   17  C   UNL     1      45.113 -18.977 -10.247  1.00  0.00    -0.000 C 
BRANCH  17  18
HETATM   18  C   UNL     1      44.393 -18.319 -11.430  1.00  0.00    -0.005 C 
HETATM   19  C   UNL     1      45.038 -18.712 -12.756  1.00  0.00     0.005 C 
ENDBRANCH  17  18
ENDBRANCH  16  17
ENDBRANCH  15  16
ENDBRANCH  14  15
ENDBRANCH  13  14
ENDBRANCH  12  13
ENDBRANCH  11  12
ENDBRANCH  10  11
ENDBRANCH   9  10
ENDBRANCH   8   9
ENDBRANCH   7   8
ENDBRANCH   6   7
ENDBRANCH   5   6
ENDBRANCH   3   5
ENDBRANCH   1   3
TORSDOF 15
ENDMDL
MODEL 14
REMARK VINA RESULT:      -4.8     21.924     22.661
REMARK  15 active torsions:
REMARK  status: ('A' for Active; 'I' for Inactive)
REMARK    1  A    between atoms: O_1  and  C_18 
REMARK    2  A    between atoms: C_3  and  C_4 
REMARK    3  A    between atoms: C_3  and  C_5 
REMARK    4  A    between atoms: C_4  and  C_6 
REMARK    5  A    between atoms: C_5  and  C_7 
REMARK    6  A    between atoms: C_6  and  C_8 
REMARK    7  A    between atoms: C_7  and  C_9 
REMARK    8  A    between atoms: C_8  and  C_10 
REMARK    9  A    between atoms: C_9  and  C_11 
REMARK   10  A    between atoms: C_10  and  C_12 
REMARK   11  A    between atoms: C_11  and  C_13 
REMARK   12  A    between atoms: C_12  and  C_14 
REMARK   13  A    between atoms: C_13  and  C_15 
REMARK   14  A    between atoms: C_14  and  C_16 
REMARK   15  A    between atoms: C_16  and  C_18 
ROOT
HETATM    1  O   UNL     1      28.009  11.205 -23.821  1.00  0.00    -0.776 OA
HETATM    2  H   UNL     1      27.438  10.477 -24.103  1.00  0.00     0.167 HD
ENDROOT
BRANCH   1   3
HETATM    3  C   UNL     1      27.554  12.475 -23.764  1.00  0.00     0.139 C 
HETATM    4  O   UNL     1      28.112  13.349 -24.412  1.00  0.00    -0.650 OA
BRANCH   3   5
HETATM    5  C   UNL     1      26.360  12.785 -22.899  1.00  0.00     0.110 C 
BRANCH   5   6
HETATM    6  C   UNL     1      25.442  11.573 -22.681  1.00  0.00     0.010 C 
BRANCH   6   7
HETATM    7  C   UNL     1      25.287  11.261 -21.189  1.00  0.00     0.001 C 
BRANCH   7   8
HETATM    8  C   UNL     1      26.652  11.024 -20.532  1.00  0.00     0.000 C 
BRANCH   8   9
HETATM    9  C   UNL     1      26.622  11.402 -19.046  1.00  0.00     0.000 C 
BRANCH   9  10
HETATM   10  C   UNL     1      25.887  12.730 -18.831  1.00  0.00     0.000 C 
BRANCH  10  11
HETATM   11  C   UNL     1      25.383  12.854 -17.388  1.00  0.00     0.000 C 
BRANCH  11  12
HETATM   12  C   UNL     1      26.140  11.900 -16.457  1.00  0.00     0.000 C 
BRANCH  12  13
HETATM   13  C   UNL     1      25.171  11.125 -15.557  1.00  0.00     0.000 C 
BRANCH  13  14
HETATM   14  C   UNL     1      24.190  12.075 -14.859  1.00  0.00     0.000 C 
BRANCH  14  15
HETATM   15  C   UNL     1      24.123  11.790 -13.354  1.00  0.00     0.000 C 
BRANCH  15  16
HETATM   16  C   UNL     1      25.454  11.228 -12.841  1.00  0.00     0.000 C 
BRANCH  16  17
HETATM   17  C   UNL     1      25.697  11.634 -11.383  1.00  0.00    -0.000 C 
BRANCH  17  18
HETATM   18  C   UNL     1      24.416  12.179 -10.742  1.00  0.00    -0.005 C 
HETATM   19  C   UNL     1      24.137  11.501  -9.404  1.00  0.00     0.005 C 
ENDBRANCH  17  18
ENDBRANCH  16  17
ENDBRANCH  15  16
ENDBRANCH  14  15
ENDBRANCH  13  14
ENDBRANCH  12  13
ENDBRANCH  11  12
ENDBRANCH  10  11
ENDBRANCH   9  10
ENDBRANCH   8   9
ENDBRANCH   7   8
ENDBRANCH   6   7
ENDBRANCH   5   6
ENDBRANCH   3   5
ENDBRANCH   1   3
TORSDOF 15
ENDMDL
MODEL 15
REMARK VINA RESULT:      -4.7     22.488     24.752
REMARK  15 active torsions:
REMARK  status: ('A' for Active; 'I' for Inactive)
REMARK    1  A    between atoms: O_1  and  C_18 
REMARK    2  A    between atoms: C_3  and  C_4 
REMARK    3  A    between atoms: C_3  and  C_5 
REMARK    4  A    between atoms: C_4  and  C_6 
REMARK    5  A    between atoms: C_5  and  C_7 
REMARK    6  A    between atoms: C_6  and  C_8 
REMARK    7  A    between atoms: C_7  and  C_9 
REMARK    8  A    between atoms: C_8  and  C_10 
REMARK    9  A    between atoms: C_9  and  C_11 
REMARK   10  A    between atoms: C_10  and  C_12 
REMARK   11  A    between atoms: C_11  and  C_13 
REMARK   12  A    between atoms: C_12  and  C_14 
REMARK   13  A    between atoms: C_13  and  C_15 
REMARK   14  A    between atoms: C_14  and  C_16 
REMARK   15  A    between atoms: C_16  and  C_18 
ROOT
HETATM    1  O   UNL     1      29.980  12.279 -12.643  1.00  0.00    -0.776 OA
HETATM    2  H   UNL     1      30.928  12.228 -12.830  1.00  0.00     0.167 HD
ENDROOT
BRANCH   1   3
HETATM    3  C   UNL     1      29.060  12.098 -13.614  1.00  0.00     0.139 C 
HETATM    4  O   UNL     1      29.377  12.246 -14.786  1.00  0.00    -0.650 OA
BRANCH   3   5
HETATM    5  C   UNL     1      27.655  11.716 -13.227  1.00  0.00     0.110 C 
BRANCH   5   6
HETATM    6  C   UNL     1      26.870  12.871 -12.587  1.00  0.00     0.010 C 
BRANCH   6   7
HETATM    7  C   UNL     1      25.407  12.479 -12.355  1.00  0.00     0.001 C 
BRANCH   7   8
HETATM    8  C   UNL     1      25.073  11.158 -13.059  1.00  0.00     0.000 C 
BRANCH   8   9
HETATM    9  C   UNL     1      23.984  11.359 -14.120  1.00  0.00     0.000 C 
BRANCH   9  10
HETATM   10  C   UNL     1      24.457  12.317 -15.219  1.00  0.00     0.000 C 
BRANCH  10  11
HETATM   11  C   UNL     1      24.723  11.564 -16.528  1.00  0.00     0.000 C 
BRANCH  11  12
HETATM   12  C   UNL     1      24.278  12.390 -17.740  1.00  0.00     0.000 C 
BRANCH  12  13
HETATM   13  C   UNL     1      24.650  11.690 -19.051  1.00  0.00     0.000 C 
BRANCH  13  14
HETATM   14  C   UNL     1      26.151  11.378 -19.102  1.00  0.00     0.000 C 
BRANCH  14  15
HETATM   15  C   UNL     1      26.648  11.296 -20.550  1.00  0.00     0.000 C 
BRANCH  15  16
HETATM   16  C   UNL     1      26.453  12.632 -21.275  1.00  0.00     0.000 C 
BRANCH  16  17
HETATM   17  C   UNL     1      25.886  12.416 -22.683  1.00  0.00    -0.000 C 
BRANCH  17  18
HETATM   18  C   UNL     1      24.482  11.805 -22.624  1.00  0.00    -0.005 C 
HETATM   19  C   UNL     1      23.797  11.863 -23.986  1.00  0.00     0.005 C 
ENDBRANCH  17  18
ENDBRANCH  16  17
ENDBRANCH  15  16
ENDBRANCH  14  15
ENDBRANCH  13  14
ENDBRANCH  12  13
ENDBRANCH  11  12
ENDBRANCH  10  11
ENDBRANCH   9  10
ENDBRANCH   8   9
ENDBRANCH   7   8
ENDBRANCH   6   7
ENDBRANCH   5   6
ENDBRANCH   3   5
ENDBRANCH   1   3
TORSDOF 15
ENDMDL
MODEL 16
REMARK VINA RESULT:      -4.7     22.610     24.663
REMARK  15 active torsions:
REMARK  status: ('A' for Active; 'I' for Inactive)
REMARK    1  A    between atoms: O_1  and  C_18 
REMARK    2  A    between atoms: C_3  and  C_4 
REMARK    3  A    between atoms: C_3  and  C_5 
REMARK    4  A    between atoms: C_4  and  C_6 
REMARK    5  A    between atoms: C_5  and  C_7 
REMARK    6  A    between atoms: C_6  and  C_8 
REMARK    7  A    between atoms: C_7  and  C_9 
REMARK    8  A    between atoms: C_8  and  C_10 
REMARK    9  A    between atoms: C_9  and  C_11 
REMARK   10  A    between atoms: C_10  and  C_12 
REMARK   11  A    between atoms: C_11  and  C_13 
REMARK   12  A    between atoms: C_12  and  C_14 
REMARK   13  A    between atoms: C_13  and  C_15 
REMARK   14  A    between atoms: C_14  and  C_16 
REMARK   15  A    between atoms: C_16  and  C_18 
ROOT
HETATM    1  O   UNL     1      30.197  10.788 -17.352  1.00  0.00    -0.776 OA
HETATM    2  H   UNL     1      30.533  11.677 -17.534  1.00  0.00     0.167 HD
ENDROOT
BRANCH   1   3
HETATM    3  C   UNL     1      29.408  10.538 -16.285  1.00  0.00     0.139 C 
HETATM    4  O   UNL     1      29.149   9.383 -15.979  1.00  0.00    -0.650 OA
BRANCH   3   5
HETATM    5  C   UNL     1      28.865  11.697 -15.491  1.00  0.00     0.110 C 
BRANCH   5   6
HETATM    6  C   UNL     1      28.814  11.422 -13.980  1.00  0.00     0.010 C 
BRANCH   6   7
HETATM    7  C   UNL     1      28.200  12.607 -13.226  1.00  0.00     0.001 C 
BRANCH   7   8
HETATM    8  C   UNL     1      26.751  12.850 -13.668  1.00  0.00     0.000 C 
BRANCH   8   9
HETATM    9  C   UNL     1      25.778  11.971 -12.872  1.00  0.00     0.000 C 
BRANCH   9  10
HETATM   10  C   UNL     1      24.443  11.820 -13.611  1.00  0.00     0.000 C 
BRANCH  10  11
HETATM   11  C   UNL     1      24.662  11.330 -15.047  1.00  0.00     0.000 C 
BRANCH  11  12
HETATM   12  C   UNL     1      24.266  12.407 -16.064  1.00  0.00     0.000 C 
BRANCH  12  13
HETATM   13  C   UNL     1      25.266  12.465 -17.224  1.00  0.00     0.000 C 
BRANCH  13  14
HETATM   14  C   UNL     1      25.147  11.222 -18.114  1.00  0.00     0.000 C 
BRANCH  14  15
HETATM   15  C   UNL     1      24.153  11.457 -19.258  1.00  0.00     0.000 C 
BRANCH  15  16
HETATM   16  C   UNL     1      24.853  12.063 -20.479  1.00  0.00     0.000 C 
BRANCH  16  17
HETATM   17  C   UNL     1      25.253  10.974 -21.482  1.00  0.00    -0.000 C 
BRANCH  17  18
HETATM   18  C   UNL     1      25.361  11.546 -22.901  1.00  0.00    -0.005 C 
HETATM   19  C   UNL     1      24.021  11.473 -23.628  1.00  0.00     0.005 C 
ENDBRANCH  17  18
ENDBRANCH  16  17
ENDBRANCH  15  16
ENDBRANCH  14  15
ENDBRANCH  13  14
ENDBRANCH  12  13
ENDBRANCH  11  12
ENDBRANCH  10  11
ENDBRANCH   9  10
ENDBRANCH   8   9
ENDBRANCH   7   8
ENDBRANCH   6   7
ENDBRANCH   5   6
ENDBRANCH   3   5
ENDBRANCH   1   3
TORSDOF 15
ENDMDL
MODEL 17
REMARK VINA RESULT:      -4.6     22.254     23.389
REMARK  15 active torsions:
REMARK  status: ('A' for Active; 'I' for Inactive)
REMARK    1  A    between atoms: O_1  and  C_18 
REMARK    2  A    between atoms: C_3  and  C_4 
REMARK    3  A    between atoms: C_3  and  C_5 
REMARK    4  A    between atoms: C_4  and  C_6 
REMARK    5  A    between atoms: C_5  and  C_7 
REMARK    6  A    between atoms: C_6  and  C_8 
REMARK    7  A    between atoms: C_7  and  C_9 
REMARK    8  A    between atoms: C_8  and  C_10 
REMARK    9  A    between atoms: C_9  and  C_11 
REMARK   10  A    between atoms: C_10  and  C_12 
REMARK   11  A    between atoms: C_11  and  C_13 
REMARK   12  A    between atoms: C_12  and  C_14 
REMARK   13  A    between atoms: C_13  and  C_15 
REMARK   14  A    between atoms: C_14  and  C_16 
REMARK   15  A    between atoms: C_16  and  C_18 
ROOT
HETATM    1  O   UNL     1      28.592  11.621 -16.727  1.00  0.00    -0.776 OA
HETATM    2  H   UNL     1      29.372  11.678 -17.296  1.00  0.00     0.167 HD
ENDROOT
BRANCH   1   3
HETATM    3  C   UNL     1      27.373  11.331 -17.228  1.00  0.00     0.139 C 
HETATM    4  O   UNL     1      27.199  11.331 -18.439  1.00  0.00    -0.650 OA
BRANCH   3   5
HETATM    5  C   UNL     1      26.250  11.009 -16.278  1.00  0.00     0.110 C 
BRANCH   5   6
HETATM    6  C   UNL     1      25.739  12.238 -15.510  1.00  0.00     0.010 C 
BRANCH   6   7
HETATM    7  C   UNL     1      24.231  12.138 -15.254  1.00  0.00     0.001 C 
BRANCH   7   8
HETATM    8  C   UNL     1      23.944  11.770 -13.793  1.00  0.00     0.000 C 
BRANCH   8   9
HETATM    9  C   UNL     1      24.972  12.409 -12.852  1.00  0.00     0.000 C 
BRANCH   9  10
HETATM   10  C   UNL     1      25.452  11.404 -11.799  1.00  0.00     0.000 C 
BRANCH  10  11
HETATM   11  C   UNL     1      25.354  11.996 -10.388  1.00  0.00     0.000 C 
BRANCH  11  12
HETATM   12  C   UNL     1      24.038  11.594  -9.711  1.00  0.00     0.000 C 
BRANCH  12  13
HETATM   13  C   UNL     1      24.003  12.062  -8.252  1.00  0.00     0.000 C 
BRANCH  13  14
HETATM   14  C   UNL     1      25.412  12.398  -7.749  1.00  0.00     0.000 C 
BRANCH  14  15
HETATM   15  C   UNL     1      25.978  11.258  -6.893  1.00  0.00     0.000 C 
BRANCH  15  16
HETATM   16  C   UNL     1      27.488  11.423  -6.686  1.00  0.00     0.000 C 
BRANCH  16  17
HETATM   17  C   UNL     1      28.205  11.653  -8.021  1.00  0.00    -0.000 C 
BRANCH  17  18
HETATM   18  C   UNL     1      29.043  12.936  -7.981  1.00  0.00    -0.005 C 
HETATM   19  C   UNL     1      28.388  14.047  -8.798  1.00  0.00     0.005 C 
ENDBRANCH  17  18
ENDBRANCH  16  17
ENDBRANCH  15  16
ENDBRANCH  14  15
ENDBRANCH  13  14
ENDBRANCH  12  13
ENDBRANCH  11  12
ENDBRANCH  10  11
ENDBRANCH   9  10
ENDBRANCH   8   9
ENDBRANCH   7   8
ENDBRANCH   6   7
ENDBRANCH   5   6
ENDBRANCH   3   5
ENDBRANCH   1   3
TORSDOF 15
ENDMDL
MODEL 18
REMARK VINA RESULT:      -4.6     28.858     30.580
REMARK  15 active torsions:
REMARK  status: ('A' for Active; 'I' for Inactive)
REMARK    1  A    between atoms: O_1  and  C_18 
REMARK    2  A    between atoms: C_3  and  C_4 
REMARK    3  A    between atoms: C_3  and  C_5 
REMARK    4  A    between atoms: C_4  and  C_6 
REMARK    5  A    between atoms: C_5  and  C_7 
REMARK    6  A    between atoms: C_6  and  C_8 
REMARK    7  A    between atoms: C_7  and  C_9 
REMARK    8  A    between atoms: C_8  and  C_10 
REMARK    9  A    between atoms: C_9  and  C_11 
REMARK   10  A    between atoms: C_10  and  C_12 
REMARK   11  A    between atoms: C_11  and  C_13 
REMARK   12  A    between atoms: C_12  and  C_14 
REMARK   13  A    between atoms: C_13  and  C_15 
REMARK   14  A    between atoms: C_14  and  C_16 
REMARK   15  A    between atoms: C_16  and  C_18 
ROOT
HETATM    1  O   UNL     1      31.310   5.612  -7.774  1.00  0.00    -0.776 OA
HETATM    2  H   UNL     1      30.806   4.797  -7.643  1.00  0.00     0.167 HD
ENDROOT
BRANCH   1   3
HETATM    3  C   UNL     1      30.993   6.486  -8.753  1.00  0.00     0.139 C 
HETATM    4  O   UNL     1      30.507   7.571  -8.465  1.00  0.00    -0.650 OA
BRANCH   3   5
HETATM    5  C   UNL     1      31.248   6.101 -10.187  1.00  0.00     0.110 C 
BRANCH   5   6
HETATM    6  C   UNL     1      32.742   5.965 -10.518  1.00  0.00     0.010 C 
BRANCH   6   7
HETATM    7  C   UNL     1      33.214   7.119 -11.410  1.00  0.00     0.001 C 
BRANCH   7   8
HETATM    8  C   UNL     1      34.589   6.816 -12.019  1.00  0.00     0.000 C 
BRANCH   8   9
HETATM    9  C   UNL     1      34.785   7.571 -13.339  1.00  0.00     0.000 C 
BRANCH   9  10
HETATM   10  C   UNL     1      34.983   6.597 -14.506  1.00  0.00     0.000 C 
BRANCH  10  11
HETATM   11  C   UNL     1      35.034   7.344 -15.844  1.00  0.00     0.000 C 
BRANCH  11  12
HETATM   12  C   UNL     1      34.195   6.627 -16.909  1.00  0.00     0.000 C 
BRANCH  12  13
HETATM   13  C   UNL     1      33.278   5.578 -16.272  1.00  0.00     0.000 C 
BRANCH  13  14
HETATM   14  C   UNL     1      31.806   5.993 -16.385  1.00  0.00     0.000 C 
BRANCH  14  15
HETATM   15  C   UNL     1      31.258   6.457 -15.030  1.00  0.00     0.000 C 
BRANCH  15  16
HETATM   16  C   UNL     1      30.721   7.890 -15.116  1.00  0.00     0.000 C 
BRANCH  16  17
HETATM   17  C   UNL     1      31.569   8.847 -14.269  1.00  0.00    -0.000 C 
BRANCH  17  18
HETATM   18  C   UNL     1      32.398   9.781 -15.157  1.00  0.00    -0.005 C 
HETATM   19  C   UNL     1      31.934   9.716 -16.610  1.00  0.00     0.005 C 
ENDBRANCH  17  18
ENDBRANCH  16  17
ENDBRANCH  15  16
ENDBRANCH  14  15
ENDBRANCH  13  14
ENDBRANCH  12  13
ENDBRANCH  11  12
ENDBRANCH  10  11
ENDBRANCH   9  10
ENDBRANCH   8   9
ENDBRANCH   7   8
ENDBRANCH   6   7
ENDBRANCH   5   6
ENDBRANCH   3   5
ENDBRANCH   1   3
TORSDOF 15
ENDMDL
MODEL 19
REMARK VINA RESULT:      -4.6     22.644     23.505
REMARK  15 active torsions:
REMARK  status: ('A' for Active; 'I' for Inactive)
REMARK    1  A    between atoms: O_1  and  C_18 
REMARK    2  A    between atoms: C_3  and  C_4 
REMARK    3  A    between atoms: C_3  and  C_5 
REMARK    4  A    between atoms: C_4  and  C_6 
REMARK    5  A    between atoms: C_5  and  C_7 
REMARK    6  A    between atoms: C_6  and  C_8 
REMARK    7  A    between atoms: C_7  and  C_9 
REMARK    8  A    between atoms: C_8  and  C_10 
REMARK    9  A    between atoms: C_9  and  C_11 
REMARK   10  A    between atoms: C_10  and  C_12 
REMARK   11  A    between atoms: C_11  and  C_13 
REMARK   12  A    between atoms: C_12  and  C_14 
REMARK   13  A    between atoms: C_13  and  C_15 
REMARK   14  A    between atoms: C_14  and  C_16 
REMARK   15  A    between atoms: C_16  and  C_18 
ROOT
HETATM    1  O   UNL     1      29.884  15.276 -21.349  1.00  0.00    -0.776 OA
HETATM    2  H   UNL     1      30.173  14.418 -21.007  1.00  0.00     0.167 HD
ENDROOT
BRANCH   1   3
HETATM    3  C   UNL     1      28.668  15.437 -21.913  1.00  0.00     0.139 C 
HETATM    4  O   UNL     1      28.028  16.455 -21.695  1.00  0.00    -0.650 OA
BRANCH   3   5
HETATM    5  C   UNL     1      28.127  14.349 -22.804  1.00  0.00     0.110 C 
BRANCH   5   6
HETATM    6  C   UNL     1      27.422  13.227 -22.027  1.00  0.00     0.010 C 
BRANCH   6   7
HETATM    7  C   UNL     1      26.543  12.383 -22.956  1.00  0.00     0.001 C 
BRANCH   7   8
HETATM    8  C   UNL     1      25.806  11.289 -22.174  1.00  0.00     0.000 C 
BRANCH   8   9
HETATM    9  C   UNL     1      25.735  11.633 -20.681  1.00  0.00     0.000 C 
BRANCH   9  10
HETATM   10  C   UNL     1      24.340  12.140 -20.298  1.00  0.00     0.000 C 
BRANCH  10  11
HETATM   11  C   UNL     1      23.836  11.454 -19.023  1.00  0.00     0.000 C 
BRANCH  11  12
HETATM   12  C   UNL     1      24.211  12.263 -17.776  1.00  0.00     0.000 C 
BRANCH  12  13
HETATM   13  C   UNL     1      25.429  11.657 -17.072  1.00  0.00     0.000 C 
BRANCH  13  14
HETATM   14  C   UNL     1      26.451  12.742 -16.709  1.00  0.00     0.000 C 
BRANCH  14  15
HETATM   15  C   UNL     1      27.155  12.414 -15.387  1.00  0.00     0.000 C 
BRANCH  15  16
HETATM   16  C   UNL     1      26.354  11.389 -14.576  1.00  0.00     0.000 C 
BRANCH  16  17
HETATM   17  C   UNL     1      26.211  11.833 -13.115  1.00  0.00    -0.000 C 
BRANCH  17  18
HETATM   18  C   UNL     1      24.749  11.762 -12.660  1.00  0.00    -0.005 C 
HETATM   19  C   UNL     1      23.795  11.918 -13.841  1.00  0.00     0.005 C 
ENDBRANCH  17  18
ENDBRANCH  16  17
ENDBRANCH  15  16
ENDBRANCH  14  15
ENDBRANCH  13  14
ENDBRANCH  12  13
ENDBRANCH  11  12
ENDBRANCH  10  11
ENDBRANCH   9  10
ENDBRANCH   8   9
ENDBRANCH   7   8
ENDBRANCH   6   7
ENDBRANCH   5   6
ENDBRANCH   3   5
ENDBRANCH   1   3
TORSDOF 15
ENDMDL
MODEL 20
REMARK VINA RESULT:      -4.6     22.666     23.601
REMARK  15 active torsions:
REMARK  status: ('A' for Active; 'I' for Inactive)
REMARK    1  A    between atoms: O_1  and  C_18 
REMARK    2  A    between atoms: C_3  and  C_4 
REMARK    3  A    between atoms: C_3  and  C_5 
REMARK    4  A    between atoms: C_4  and  C_6 
REMARK    5  A    between atoms: C_5  and  C_7 
REMARK    6  A    between atoms: C_6  and  C_8 
REMARK    7  A    between atoms: C_7  and  C_9 
REMARK    8  A    between atoms: C_8  and  C_10 
REMARK    9  A    between atoms: C_9  and  C_11 
REMARK   10  A    between atoms: C_10  and  C_12 
REMARK   11  A    between atoms: C_11  and  C_13 
REMARK   12  A    between atoms: C_12  and  C_14 
REMARK   13  A    between atoms: C_13  and  C_15 
REMARK   14  A    between atoms: C_14  and  C_16 
REMARK   15  A    between atoms: C_16  and  C_18 
ROOT
HETATM    1  O   UNL     1      28.331  10.861 -23.806  1.00  0.00    -0.776 OA
HETATM    2  H   UNL     1      27.755  10.158 -24.136  1.00  0.00     0.167 HD
ENDROOT
BRANCH   1   3
HETATM    3  C   UNL     1      28.110  12.157 -24.115  1.00  0.00     0.139 C 
HETATM    4  O   UNL     1      29.044  12.868 -24.456  1.00  0.00    -0.650 OA
BRANCH   3   5
HETATM    5  C   UNL     1      26.706  12.698 -24.032  1.00  0.00     0.110 C 
BRANCH   5   6
HETATM    6  C   UNL     1      25.631  11.612 -24.198  1.00  0.00     0.010 C 
BRANCH   6   7
HETATM    7  C   UNL     1      24.741  11.526 -22.953  1.00  0.00     0.001 C 
BRANCH   7   8
HETATM    8  C   UNL     1      25.530  11.001 -21.748  1.00  0.00     0.000 C 
BRANCH   8   9
HETATM    9  C   UNL     1      25.451  11.979 -20.569  1.00  0.00     0.000 C 
BRANCH   9  10
HETATM   10  C   UNL     1      24.008  12.128 -20.074  1.00  0.00     0.000 C 
BRANCH  10  11
HETATM   11  C   UNL     1      23.926  11.937 -18.554  1.00  0.00     0.000 C 
BRANCH  11  12
HETATM   12  C   UNL     1      25.323  11.782 -17.942  1.00  0.00     0.000 C 
BRANCH  12  13
HETATM   13  C   UNL     1      25.287  10.862 -16.716  1.00  0.00     0.000 C 
BRANCH  13  14
HETATM   14  C   UNL     1      24.794  11.617 -15.476  1.00  0.00     0.000 C 
BRANCH  14  15
HETATM   15  C   UNL     1      25.971  12.166 -14.660  1.00  0.00     0.000 C 
BRANCH  15  16
HETATM   16  C   UNL     1      27.204  11.265 -14.800  1.00  0.00     0.000 C 
BRANCH  16  17
HETATM   17  C   UNL     1      28.429  12.074 -15.244  1.00  0.00    -0.000 C 
BRANCH  17  18
HETATM   18  C   UNL     1      28.008  13.397 -15.894  1.00  0.00    -0.005 C 
HETATM   19  C   UNL     1      28.631  14.588 -15.170  1.00  0.00     0.005 C 
ENDBRANCH  17  18
ENDBRANCH  16  17
ENDBRANCH  15  16
ENDBRANCH  14  15
ENDBRANCH  13  14
ENDBRANCH  12  13
ENDBRANCH  11  12
ENDBRANCH  10  11
ENDBRANCH   9  10
ENDBRANCH   8   9
ENDBRANCH   7   8
ENDBRANCH   6   7
ENDBRANCH   5   6
ENDBRANCH   3   5
ENDBRANCH   1   3
TORSDOF 15
ENDMDL
