MODEL 1
REMARK VINA RESULT:      -5.8      0.000      0.000
REMARK  16 active torsions:
REMARK  status: ('A' for Active; 'I' for Inactive)
REMARK    1  A    between atoms: O_1  and  C_20 
REMARK    2  A    between atoms: C_3  and  C_4 
REMARK    3  A    between atoms: C_3  and  C_5 
REMARK    4  A    between atoms: C_4  and  C_8 
REMARK    5  A    between atoms: C_5  and  C_11 
REMARK    6  A    between atoms: C_6  and  C_7 
REMARK    7  A    between atoms: C_6  and  C_9 
REMARK    8  A    between atoms: C_7  and  C_10 
REMARK    9  A    between atoms: C_8  and  C_12 
REMARK   10  A    between atoms: C_9  and  C_13 
REMARK   11  A    between atoms: C_10  and  C_14 
REMARK   12  A    between atoms: C_11  and  C_15 
REMARK   13  A    between atoms: C_12  and  C_16 
REMARK   14  A    between atoms: C_13  and  C_17 
REMARK   15  A    between atoms: C_14  and  C_18 
REMARK   16  A    between atoms: C_18  and  C_20 
ROOT
HETATM    1  O   UNL     1      13.371  -1.504  -6.643  1.00  0.00    -0.776 OA
HETATM    2  H   UNL     1      13.373  -1.096  -7.521  1.00  0.00     0.167 HD
ENDROOT
BRANCH   1   3
HETATM    3  C   UNL     1      12.223  -1.717  -5.967  1.00  0.00     0.139 C 
HETATM    4  O   UNL     1      12.224  -1.688  -4.744  1.00  0.00    -0.650 OA
BRANCH   3   5
HETATM    5  C   UNL     1      10.959  -1.989  -6.741  1.00  0.00     0.110 C 
BRANCH   5   6
HETATM    6  C   UNL     1      10.993  -1.426  -8.168  1.00  0.00     0.010 C 
BRANCH   6   7
HETATM    7  C   UNL     1      11.372  -2.514  -9.180  1.00  0.00     0.001 C 
BRANCH   7   8
HETATM    8  C   UNL     1      11.840  -1.894 -10.501  1.00  0.00     0.000 C 
BRANCH   8   9
HETATM    9  C   UNL     1      10.796  -0.916 -11.051  1.00  0.00     0.000 C 
BRANCH   9  10
HETATM   10  C   UNL     1      10.516  -1.197 -12.531  1.00  0.00     0.004 C 
BRANCH  10  11
HETATM   11  C   UNL     1      11.499  -2.222 -13.101  1.00  0.00     0.027 C 
BRANCH  11  12
HETATM   12  C   UNL     1      12.287  -1.591 -14.224  1.00  0.00    -0.031 C 
HETATM   13  C   UNL     1      11.936  -1.538 -15.525  1.00  0.00    -0.031 C 
BRANCH  13  14
HETATM   14  C   UNL     1      10.682  -2.105 -16.155  1.00  0.00     0.027 C 
BRANCH  14  15
HETATM   15  C   UNL     1      10.936  -2.537 -17.610  1.00  0.00     0.004 C 
BRANCH  15  16
HETATM   16  C   UNL     1      11.866  -1.593 -18.401  1.00  0.00     0.000 C 
BRANCH  16  17
HETATM   17  C   UNL     1      12.109  -2.054 -19.848  1.00  0.00     0.000 C 
BRANCH  17  18
HETATM   18  C   UNL     1      11.359  -1.160 -20.845  1.00  0.00     0.000 C 
BRANCH  18  19
HETATM   19  C   UNL     1      10.744  -1.994 -21.975  1.00  0.00    -0.000 C 
BRANCH  19  20
HETATM   20  C   UNL     1      11.783  -2.310 -23.057  1.00  0.00    -0.005 C 
HETATM   21  C   UNL     1      11.484  -1.552 -24.346  1.00  0.00     0.005 C 
ENDBRANCH  19  20
ENDBRANCH  18  19
ENDBRANCH  17  18
ENDBRANCH  16  17
ENDBRANCH  15  16
ENDBRANCH  14  15
ENDBRANCH  13  14
ENDBRANCH  11  12
ENDBRANCH  10  11
ENDBRANCH   9  10
ENDBRANCH   8   9
ENDBRANCH   7   8
ENDBRANCH   6   7
ENDBRANCH   5   6
ENDBRANCH   3   5
ENDBRANCH   1   3
TORSDOF 16
ENDMDL
MODEL 2
REMARK VINA RESULT:      -5.5     19.553     22.686
REMARK  16 active torsions:
REMARK  status: ('A' for Active; 'I' for Inactive)
REMARK    1  A    between atoms: O_1  and  C_20 
REMARK    2  A    between atoms: C_3  and  C_4 
REMARK    3  A    between atoms: C_3  and  C_5 
REMARK    4  A    between atoms: C_4  and  C_8 
REMARK    5  A    between atoms: C_5  and  C_11 
REMARK    6  A    between atoms: C_6  and  C_7 
REMARK    7  A    between atoms: C_6  and  C_9 
REMARK    8  A    between atoms: C_7  and  C_10 
REMARK    9  A    between atoms: C_8  and  C_12 
REMARK   10  A    between atoms: C_9  and  C_13 
REMARK   11  A    between atoms: C_10  and  C_14 
REMARK   12  A    between atoms: C_11  and  C_15 
REMARK   13  A    between atoms: C_12  and  C_16 
REMARK   14  A    between atoms: C_13  and  C_17 
REMARK   15  A    between atoms: C_14  and  C_18 
REMARK   16  A    between atoms: C_18  and  C_20 
ROOT
HETATM    1  O   UNL     1      26.707  13.178 -23.022  1.00  0.00    -0.776 OA
HETATM    2  H   UNL     1      25.984  13.818 -22.943  1.00  0.00     0.167 HD
ENDROOT
BRANCH   1   3
HETATM    3  C   UNL     1      26.469  11.873 -23.269  1.00  0.00     0.139 C 
HETATM    4  O   UNL     1      27.279  11.220 -23.914  1.00  0.00    -0.650 OA
BRANCH   3   5
HETATM    5  C   UNL     1      25.205  11.247 -22.743  1.00  0.00     0.110 C 
BRANCH   5   6
HETATM    6  C   UNL     1      25.196  11.098 -21.215  1.00  0.00     0.010 C 
BRANCH   6   7
HETATM    7  C   UNL     1      24.407  12.236 -20.556  1.00  0.00     0.001 C 
BRANCH   7   8
HETATM    8  C   UNL     1      23.825  11.789 -19.210  1.00  0.00     0.000 C 
BRANCH   8   9
HETATM    9  C   UNL     1      24.938  11.416 -18.225  1.00  0.00     0.000 C 
BRANCH   9  10
HETATM   10  C   UNL     1      25.448  12.657 -17.485  1.00  0.00     0.004 C 
BRANCH  10  11
HETATM   11  C   UNL     1      25.996  12.298 -16.102  1.00  0.00     0.027 C 
BRANCH  11  12
HETATM   12  C   UNL     1      25.210  11.140 -15.536  1.00  0.00    -0.031 C 
HETATM   13  C   UNL     1      24.431  11.157 -14.435  1.00  0.00    -0.031 C 
BRANCH  13  14
HETATM   14  C   UNL     1      24.175  12.332 -13.515  1.00  0.00     0.027 C 
BRANCH  14  15
HETATM   15  C   UNL     1      25.046  12.248 -12.250  1.00  0.00     0.004 C 
BRANCH  15  16
HETATM   16  C   UNL     1      24.262  12.381 -10.928  1.00  0.00     0.000 C 
BRANCH  16  17
HETATM   17  C   UNL     1      25.090  11.996  -9.691  1.00  0.00     0.000 C 
BRANCH  17  18
HETATM   18  C   UNL     1      24.248  11.194  -8.690  1.00  0.00     0.000 C 
BRANCH  18  19
HETATM   19  C   UNL     1      25.082  10.792  -7.468  1.00  0.00    -0.000 C 
BRANCH  19  20
HETATM   20  C   UNL     1      26.002  11.937  -7.026  1.00  0.00    -0.005 C 
HETATM   21  C   UNL     1      25.789  12.277  -5.554  1.00  0.00     0.005 C 
ENDBRANCH  19  20
ENDBRANCH  18  19
ENDBRANCH  17  18
ENDBRANCH  16  17
ENDBRANCH  15  16
ENDBRANCH  14  15
ENDBRANCH  13  14
ENDBRANCH  11  12
ENDBRANCH  10  11
ENDBRANCH   9  10
ENDBRANCH   8   9
ENDBRANCH   7   8
ENDBRANCH   6   7
ENDBRANCH   5   6
ENDBRANCH   3   5
ENDBRANCH   1   3
TORSDOF 16
ENDMDL
MODEL 3
REMARK VINA RESULT:      -5.5     20.012     21.142
REMARK  16 active torsions:
REMARK  status: ('A' for Active; 'I' for Inactive)
REMARK    1  A    between atoms: O_1  and  C_20 
REMARK    2  A    between atoms: C_3  and  C_4 
REMARK    3  A    between atoms: C_3  and  C_5 
REMARK    4  A    between atoms: C_4  and  C_8 
REMARK    5  A    between atoms: C_5  and  C_11 
REMARK    6  A    between atoms: C_6  and  C_7 
REMARK    7  A    between atoms: C_6  and  C_9 
REMARK    8  A    between atoms: C_7  and  C_10 
REMARK    9  A    between atoms: C_8  and  C_12 
REMARK   10  A    between atoms: C_9  and  C_13 
REMARK   11  A    between atoms: C_10  and  C_14 
REMARK   12  A    between atoms: C_11  and  C_15 
REMARK   13  A    between atoms: C_12  and  C_16 
REMARK   14  A    between atoms: C_13  and  C_17 
REMARK   15  A    between atoms: C_14  and  C_18 
REMARK   16  A    between atoms: C_18  and  C_20 
ROOT
HETATM    1  O   UNL     1      26.586  13.505 -12.468  1.00  0.00    -0.776 OA
HETATM    2  H   UNL     1      26.014  14.239 -12.733  1.00  0.00     0.167 HD
ENDROOT
BRANCH   1   3
HETATM    3  C   UNL     1      26.076  12.345 -12.004  1.00  0.00     0.139 C 
HETATM    4  O   UNL     1      26.177  12.070 -10.816  1.00  0.00    -0.650 OA
BRANCH   3   5
HETATM    5  C   UNL     1      25.391  11.411 -12.966  1.00  0.00     0.110 C 
BRANCH   5   6
HETATM    6  C   UNL     1      24.029  11.932 -13.445  1.00  0.00     0.010 C 
BRANCH   6   7
HETATM    7  C   UNL     1      24.025  12.146 -14.964  1.00  0.00     0.001 C 
BRANCH   7   8
HETATM    8  C   UNL     1      25.369  11.737 -15.577  1.00  0.00     0.000 C 
BRANCH   8   9
HETATM    9  C   UNL     1      25.192  11.250 -17.020  1.00  0.00     0.000 C 
BRANCH   9  10
HETATM   10  C   UNL     1      24.387  12.264 -17.840  1.00  0.00     0.004 C 
BRANCH  10  11
HETATM   11  C   UNL     1      23.644  11.584 -18.994  1.00  0.00     0.027 C 
BRANCH  11  12
HETATM   12  C   UNL     1      23.884  12.357 -20.269  1.00  0.00    -0.031 C 
HETATM   13  C   UNL     1      24.776  12.060 -21.236  1.00  0.00    -0.031 C 
BRANCH  13  14
HETATM   14  C   UNL     1      25.743  10.895 -21.259  1.00  0.00     0.027 C 
BRANCH  14  15
HETATM   15  C   UNL     1      27.038  11.231 -20.499  1.00  0.00     0.004 C 
BRANCH  15  16
HETATM   16  C   UNL     1      27.202  12.724 -20.150  1.00  0.00     0.000 C 
BRANCH  16  17
HETATM   17  C   UNL     1      28.520  13.326 -20.665  1.00  0.00     0.000 C 
BRANCH  17  18
HETATM   18  C   UNL     1      29.435  13.731 -19.502  1.00  0.00     0.000 C 
BRANCH  18  19
HETATM   19  C   UNL     1      28.821  13.332 -18.155  1.00  0.00    -0.000 C 
BRANCH  19  20
HETATM   20  C   UNL     1      28.314  14.562 -17.393  1.00  0.00    -0.005 C 
HETATM   21  C   UNL     1      28.047  14.231 -15.928  1.00  0.00     0.005 C 
ENDBRANCH  19  20
ENDBRANCH  18  19
ENDBRANCH  17  18
ENDBRANCH  16  17
ENDBRANCH  15  16
ENDBRANCH  14  15
ENDBRANCH  13  14
ENDBRANCH  11  12
ENDBRANCH  10  11
ENDBRANCH   9  10
ENDBRANCH   8   9
ENDBRANCH   7   8
ENDBRANCH   6   7
ENDBRANCH   5   6
ENDBRANCH   3   5
ENDBRANCH   1   3
TORSDOF 16
ENDMDL
MODEL 4
REMARK VINA RESULT:      -5.4     19.906     21.212
REMARK  16 active torsions:
REMARK  status: ('A' for Active; 'I' for Inactive)
REMARK    1  A    between atoms: O_1  and  C_20 
REMARK    2  A    between atoms: C_3  and  C_4 
REMARK    3  A    between atoms: C_3  and  C_5 
REMARK    4  A    between atoms: C_4  and  C_8 
REMARK    5  A    between atoms: C_5  and  C_11 
REMARK    6  A    between atoms: C_6  and  C_7 
REMARK    7  A    between atoms: C_6  and  C_9 
REMARK    8  A    between atoms: C_7  and  C_10 
REMARK    9  A    between atoms: C_8  and  C_12 
REMARK   10  A    between atoms: C_9  and  C_13 
REMARK   11  A    between atoms: C_10  and  C_14 
REMARK   12  A    between atoms: C_11  and  C_15 
REMARK   13  A    between atoms: C_12  and  C_16 
REMARK   14  A    between atoms: C_13  and  C_17 
REMARK   15  A    between atoms: C_14  and  C_18 
REMARK   16  A    between atoms: C_18  and  C_20 
ROOT
HETATM    1  O   UNL     1      26.379  13.378 -12.435  1.00  0.00    -0.776 OA
HETATM    2  H   UNL     1      27.116  13.644 -11.867  1.00  0.00     0.167 HD
ENDROOT
BRANCH   1   3
HETATM    3  C   UNL     1      25.982  12.091 -12.519  1.00  0.00     0.139 C 
HETATM    4  O   UNL     1      26.819  11.201 -12.590  1.00  0.00    -0.650 OA
BRANCH   3   5
HETATM    5  C   UNL     1      24.509  11.779 -12.522  1.00  0.00     0.110 C 
BRANCH   5   6
HETATM    6  C   UNL     1      24.010  11.238 -13.869  1.00  0.00     0.010 C 
BRANCH   6   7
HETATM    7  C   UNL     1      24.268  12.247 -14.995  1.00  0.00     0.001 C 
BRANCH   7   8
HETATM    8  C   UNL     1      24.685  11.531 -16.285  1.00  0.00     0.000 C 
BRANCH   8   9
HETATM    9  C   UNL     1      24.206  12.299 -17.522  1.00  0.00     0.000 C 
BRANCH   9  10
HETATM   10  C   UNL     1      24.104  11.367 -18.734  1.00  0.00     0.004 C 
BRANCH  10  11
HETATM   11  C   UNL     1      24.452  12.100 -20.032  1.00  0.00     0.027 C 
BRANCH  11  12
HETATM   12  C   UNL     1      25.574  11.373 -20.734  1.00  0.00    -0.031 C 
HETATM   13  C   UNL     1      26.818  11.839 -20.963  1.00  0.00    -0.031 C 
BRANCH  13  14
HETATM   14  C   UNL     1      27.369  13.195 -20.577  1.00  0.00     0.027 C 
BRANCH  14  15
HETATM   15  C   UNL     1      28.224  13.106 -19.301  1.00  0.00     0.004 C 
BRANCH  15  16
HETATM   16  C   UNL     1      27.616  13.820 -18.076  1.00  0.00     0.000 C 
BRANCH  16  17
HETATM   17  C   UNL     1      27.813  13.045 -16.763  1.00  0.00     0.000 C 
BRANCH  17  18
HETATM   18  C   UNL     1      28.123  11.567 -17.035  1.00  0.00     0.000 C 
BRANCH  18  19
HETATM   19  C   UNL     1      28.234  10.779 -15.724  1.00  0.00    -0.000 C 
BRANCH  19  20
HETATM   20  C   UNL     1      29.535   9.969 -15.675  1.00  0.00    -0.005 C 
HETATM   21  C   UNL     1      30.747  10.859 -15.936  1.00  0.00     0.005 C 
ENDBRANCH  19  20
ENDBRANCH  18  19
ENDBRANCH  17  18
ENDBRANCH  16  17
ENDBRANCH  15  16
ENDBRANCH  14  15
ENDBRANCH  13  14
ENDBRANCH  11  12
ENDBRANCH  10  11
ENDBRANCH   9  10
ENDBRANCH   8   9
ENDBRANCH   7   8
ENDBRANCH   6   7
ENDBRANCH   5   6
ENDBRANCH   3   5
ENDBRANCH   1   3
TORSDOF 16
ENDMDL
MODEL 5
REMARK VINA RESULT:      -5.3     19.763     21.251
REMARK  16 active torsions:
REMARK  status: ('A' for Active; 'I' for Inactive)
REMARK    1  A    between atoms: O_1  and  C_20 
REMARK    2  A    between atoms: C_3  and  C_4 
REMARK    3  A    between atoms: C_3  and  C_5 
REMARK    4  A    between atoms: C_4  and  C_8 
REMARK    5  A    between atoms: C_5  and  C_11 
REMARK    6  A    between atoms: C_6  and  C_7 
REMARK    7  A    between atoms: C_6  and  C_9 
REMARK    8  A    between atoms: C_7  and  C_10 
REMARK    9  A    between atoms: C_8  and  C_12 
REMARK   10  A    between atoms: C_9  and  C_13 
REMARK   11  A    between atoms: C_10  and  C_14 
REMARK   12  A    between atoms: C_11  and  C_15 
REMARK   13  A    between atoms: C_12  and  C_16 
REMARK   14  A    between atoms: C_13  and  C_17 
REMARK   15  A    between atoms: C_14  and  C_18 
REMARK   16  A    between atoms: C_18  and  C_20 
ROOT
HETATM    1  O   UNL     1      25.869  12.057  -5.449  1.00  0.00    -0.776 OA
HETATM    2  H   UNL     1      25.679  11.589  -4.623  1.00  0.00     0.167 HD
ENDROOT
BRANCH   1   3
HETATM    3  C   UNL     1      25.634  11.491  -6.651  1.00  0.00     0.139 C 
HETATM    4  O   UNL     1      26.249  10.486  -6.979  1.00  0.00    -0.650 OA
BRANCH   3   5
HETATM    5  C   UNL     1      24.612  12.114  -7.565  1.00  0.00     0.110 C 
BRANCH   5   6
HETATM    6  C   UNL     1      24.357  11.290  -8.835  1.00  0.00     0.010 C 
BRANCH   6   7
HETATM    7  C   UNL     1      23.793  12.170  -9.957  1.00  0.00     0.001 C 
BRANCH   7   8
HETATM    8  C   UNL     1      24.823  12.358 -11.076  1.00  0.00     0.000 C 
BRANCH   8   9
HETATM    9  C   UNL     1      25.182  11.016 -11.726  1.00  0.00     0.000 C 
BRANCH   9  10
HETATM   10  C   UNL     1      24.410  10.823 -13.036  1.00  0.00     0.004 C 
BRANCH  10  11
HETATM   11  C   UNL     1      24.276  12.141 -13.804  1.00  0.00     0.027 C 
BRANCH  11  12
HETATM   12  C   UNL     1      24.665  11.923 -15.247  1.00  0.00    -0.031 C 
HETATM   13  C   UNL     1      25.848  12.226 -15.817  1.00  0.00    -0.031 C 
BRANCH  13  14
HETATM   14  C   UNL     1      27.049  12.861 -15.147  1.00  0.00     0.027 C 
BRANCH  14  15
HETATM   15  C   UNL     1      28.004  11.791 -14.590  1.00  0.00     0.004 C 
BRANCH  15  16
HETATM   16  C   UNL     1      28.198  11.846 -13.060  1.00  0.00     0.000 C 
BRANCH  16  17
HETATM   17  C   UNL     1      28.901  13.127 -12.584  1.00  0.00     0.000 C 
BRANCH  17  18
HETATM   18  C   UNL     1      27.934  14.034 -11.812  1.00  0.00     0.000 C 
BRANCH  18  19
HETATM   19  C   UNL     1      28.414  14.249 -10.371  1.00  0.00    -0.000 C 
BRANCH  19  20
HETATM   20  C   UNL     1      27.691  13.306  -9.402  1.00  0.00    -0.005 C 
HETATM   21  C   UNL     1      28.604  12.169  -8.955  1.00  0.00     0.005 C 
ENDBRANCH  19  20
ENDBRANCH  18  19
ENDBRANCH  17  18
ENDBRANCH  16  17
ENDBRANCH  15  16
ENDBRANCH  14  15
ENDBRANCH  13  14
ENDBRANCH  11  12
ENDBRANCH  10  11
ENDBRANCH   9  10
ENDBRANCH   8   9
ENDBRANCH   7   8
ENDBRANCH   6   7
ENDBRANCH   5   6
ENDBRANCH   3   5
ENDBRANCH   1   3
TORSDOF 16
ENDMDL
MODEL 6
REMARK VINA RESULT:      -5.2     13.143     13.768
REMARK  16 active torsions:
REMARK  status: ('A' for Active; 'I' for Inactive)
REMARK    1  A    between atoms: O_1  and  C_20 
REMARK    2  A    between atoms: C_3  and  C_4 
REMARK    3  A    between atoms: C_3  and  C_5 
REMARK    4  A    between atoms: C_4  and  C_8 
REMARK    5  A    between atoms: C_5  and  C_11 
REMARK    6  A    between atoms: C_6  and  C_7 
REMARK    7  A    between atoms: C_6  and  C_9 
REMARK    8  A    between atoms: C_7  and  C_10 
REMARK    9  A    between atoms: C_8  and  C_12 
REMARK   10  A    between atoms: C_9  and  C_13 
REMARK   11  A    between atoms: C_10  and  C_14 
REMARK   12  A    between atoms: C_11  and  C_15 
REMARK   13  A    between atoms: C_12  and  C_16 
REMARK   14  A    between atoms: C_13  and  C_17 
REMARK   15  A    between atoms: C_14  and  C_18 
REMARK   16  A    between atoms: C_18  and  C_20 
ROOT
HETATM    1  O   UNL     1       5.265   8.933  -6.905  1.00  0.00    -0.776 OA
HETATM    2  H   UNL     1       6.010   8.917  -7.523  1.00  0.00     0.167 HD
ENDROOT
BRANCH   1   3
HETATM    3  C   UNL     1       4.031   9.308  -7.299  1.00  0.00     0.139 C 
HETATM    4  O   UNL     1       3.048   8.878  -6.710  1.00  0.00    -0.650 OA
BRANCH   3   5
HETATM    5  C   UNL     1       3.891  10.255  -8.462  1.00  0.00     0.110 C 
BRANCH   5   6
HETATM    6  C   UNL     1       3.005   9.702  -9.587  1.00  0.00     0.010 C 
BRANCH   6   7
HETATM    7  C   UNL     1       3.750   8.633 -10.397  1.00  0.00     0.001 C 
BRANCH   7   8
HETATM    8  C   UNL     1       3.483   8.799 -11.897  1.00  0.00     0.000 C 
BRANCH   8   9
HETATM    9  C   UNL     1       2.555   9.989 -12.164  1.00  0.00     0.000 C 
BRANCH   9  10
HETATM   10  C   UNL     1       2.852  10.614 -13.531  1.00  0.00     0.004 C 
BRANCH  10  11
HETATM   11  C   UNL     1       3.972   9.864 -14.256  1.00  0.00     0.027 C 
BRANCH  11  12
HETATM   12  C   UNL     1       3.368   8.891 -15.241  1.00  0.00    -0.031 C 
HETATM   13  C   UNL     1       3.826   8.607 -16.477  1.00  0.00    -0.031 C 
BRANCH  13  14
HETATM   14  C   UNL     1       5.040   9.201 -17.160  1.00  0.00     0.027 C 
BRANCH  14  15
HETATM   15  C   UNL     1       4.628  10.189 -18.266  1.00  0.00     0.004 C 
BRANCH  15  16
HETATM   16  C   UNL     1       3.203   9.973 -18.814  1.00  0.00     0.000 C 
BRANCH  16  17
HETATM   17  C   UNL     1       3.148   8.983 -19.989  1.00  0.00     0.000 C 
BRANCH  17  18
HETATM   18  C   UNL     1       3.355   9.703 -21.328  1.00  0.00     0.000 C 
BRANCH  18  19
HETATM   19  C   UNL     1       4.749   9.417 -21.897  1.00  0.00    -0.000 C 
BRANCH  19  20
HETATM   20  C   UNL     1       4.802   9.705 -23.402  1.00  0.00    -0.005 C 
HETATM   21  C   UNL     1       3.402   9.904 -23.974  1.00  0.00     0.005 C 
ENDBRANCH  19  20
ENDBRANCH  18  19
ENDBRANCH  17  18
ENDBRANCH  16  17
ENDBRANCH  15  16
ENDBRANCH  14  15
ENDBRANCH  13  14
ENDBRANCH  11  12
ENDBRANCH  10  11
ENDBRANCH   9  10
ENDBRANCH   8   9
ENDBRANCH   7   8
ENDBRANCH   6   7
ENDBRANCH   5   6
ENDBRANCH   3   5
ENDBRANCH   1   3
TORSDOF 16
ENDMDL
MODEL 7
REMARK VINA RESULT:      -5.1     20.574     21.876
REMARK  16 active torsions:
REMARK  status: ('A' for Active; 'I' for Inactive)
REMARK    1  A    between atoms: O_1  and  C_20 
REMARK    2  A    between atoms: C_3  and  C_4 
REMARK    3  A    between atoms: C_3  and  C_5 
REMARK    4  A    between atoms: C_4  and  C_8 
REMARK    5  A    between atoms: C_5  and  C_11 
REMARK    6  A    between atoms: C_6  and  C_7 
REMARK    7  A    between atoms: C_6  and  C_9 
REMARK    8  A    between atoms: C_7  and  C_10 
REMARK    9  A    between atoms: C_8  and  C_12 
REMARK   10  A    between atoms: C_9  and  C_13 
REMARK   11  A    between atoms: C_10  and  C_14 
REMARK   12  A    between atoms: C_11  and  C_15 
REMARK   13  A    between atoms: C_12  and  C_16 
REMARK   14  A    between atoms: C_13  and  C_17 
REMARK   15  A    between atoms: C_14  and  C_18 
REMARK   16  A    between atoms: C_18  and  C_20 
ROOT
HETATM    1  O   UNL     1      26.194  10.982 -12.627  1.00  0.00    -0.776 OA
HETATM    2  H   UNL     1      26.969  10.788 -13.174  1.00  0.00     0.167 HD
ENDROOT
BRANCH   1   3
HETATM    3  C   UNL     1      25.359  11.999 -12.925  1.00  0.00     0.139 C 
HETATM    4  O   UNL     1      25.401  13.032 -12.270  1.00  0.00    -0.650 OA
BRANCH   3   5
HETATM    5  C   UNL     1      24.387  11.837 -14.064  1.00  0.00     0.110 C 
BRANCH   5   6
HETATM    6  C   UNL     1      25.072  11.509 -15.399  1.00  0.00     0.010 C 
BRANCH   6   7
HETATM    7  C   UNL     1      24.390  12.243 -16.561  1.00  0.00     0.001 C 
BRANCH   7   8
HETATM    8  C   UNL     1      24.723  11.575 -17.899  1.00  0.00     0.000 C 
BRANCH   8   9
HETATM    9  C   UNL     1      23.704  11.962 -18.977  1.00  0.00     0.000 C 
BRANCH   9  10
HETATM   10  C   UNL     1      24.371  12.033 -20.355  1.00  0.00     0.004 C 
BRANCH  10  11
HETATM   11  C   UNL     1      25.897  12.036 -20.237  1.00  0.00     0.027 C 
BRANCH  11  12
HETATM   12  C   UNL     1      26.488  11.198 -21.345  1.00  0.00    -0.031 C 
HETATM   13  C   UNL     1      26.888  11.631 -22.558  1.00  0.00    -0.031 C 
BRANCH  13  14
HETATM   14  C   UNL     1      26.830  13.049 -23.085  1.00  0.00     0.027 C 
BRANCH  14  15
HETATM   15  C   UNL     1      28.185  13.480 -23.674  1.00  0.00     0.004 C 
BRANCH  15  16
HETATM   16  C   UNL     1      28.894  14.599 -22.886  1.00  0.00     0.000 C 
BRANCH  16  17
HETATM   17  C   UNL     1      28.074  15.114 -21.692  1.00  0.00     0.000 C 
BRANCH  17  18
HETATM   18  C   UNL     1      28.881  15.030 -20.389  1.00  0.00     0.000 C 
BRANCH  18  19
HETATM   19  C   UNL     1      29.141  13.571 -19.997  1.00  0.00    -0.000 C 
BRANCH  19  20
HETATM   20  C   UNL     1      29.022  13.378 -18.480  1.00  0.00    -0.005 C 
HETATM   21  C   UNL     1      27.799  14.102 -17.927  1.00  0.00     0.005 C 
ENDBRANCH  19  20
ENDBRANCH  18  19
ENDBRANCH  17  18
ENDBRANCH  16  17
ENDBRANCH  15  16
ENDBRANCH  14  15
ENDBRANCH  13  14
ENDBRANCH  11  12
ENDBRANCH  10  11
ENDBRANCH   9  10
ENDBRANCH   8   9
ENDBRANCH   7   8
ENDBRANCH   6   7
ENDBRANCH   5   6
ENDBRANCH   3   5
ENDBRANCH   1   3
TORSDOF 16
ENDMDL
MODEL 8
REMARK VINA RESULT:      -5.1     20.389     21.645
REMARK  16 active torsions:
REMARK  status: ('A' for Active; 'I' for Inactive)
REMARK    1  A    between atoms: O_1  and  C_20 
REMARK    2  A    between atoms: C_3  and  C_4 
REMARK    3  A    between atoms: C_3  and  C_5 
REMARK    4  A    between atoms: C_4  and  C_8 
REMARK    5  A    between atoms: C_5  and  C_11 
REMARK    6  A    between atoms: C_6  and  C_7 
REMARK    7  A    between atoms: C_6  and  C_9 
REMARK    8  A    between atoms: C_7  and  C_10 
REMARK    9  A    between atoms: C_8  and  C_12 
REMARK   10  A    between atoms: C_9  and  C_13 
REMARK   11  A    between atoms: C_10  and  C_14 
REMARK   12  A    between atoms: C_11  and  C_15 
REMARK   13  A    between atoms: C_12  and  C_16 
REMARK   14  A    between atoms: C_13  and  C_17 
REMARK   15  A    between atoms: C_14  and  C_18 
REMARK   16  A    between atoms: C_18  and  C_20 
ROOT
HETATM    1  O   UNL     1      25.251  12.977  -7.822  1.00  0.00    -0.776 OA
HETATM    2  H   UNL     1      25.791  12.706  -7.066  1.00  0.00     0.167 HD
ENDROOT
BRANCH   1   3
HETATM    3  C   UNL     1      24.972  12.125  -8.831  1.00  0.00     0.139 C 
HETATM    4  O   UNL     1      23.807  11.882  -9.116  1.00  0.00    -0.650 OA
BRANCH   3   5
HETATM    5  C   UNL     1      26.110  11.490  -9.586  1.00  0.00     0.110 C 
BRANCH   5   6
HETATM    6  C   UNL     1      26.713  12.412 -10.655  1.00  0.00     0.010 C 
BRANCH   6   7
HETATM    7  C   UNL     1      26.733  11.724 -12.026  1.00  0.00     0.001 C 
BRANCH   7   8
HETATM    8  C   UNL     1      25.392  11.042 -12.316  1.00  0.00     0.000 C 
BRANCH   8   9
HETATM    9  C   UNL     1      24.359  12.053 -12.828  1.00  0.00     0.000 C 
BRANCH   9  10
HETATM   10  C   UNL     1      23.771  11.596 -14.167  1.00  0.00     0.004 C 
BRANCH  10  11
HETATM   11  C   UNL     1      24.459  12.290 -15.345  1.00  0.00     0.027 C 
BRANCH  11  12
HETATM   12  C   UNL     1      24.956  11.249 -16.320  1.00  0.00    -0.031 C 
HETATM   13  C   UNL     1      26.217  10.784 -16.429  1.00  0.00    -0.031 C 
BRANCH  13  14
HETATM   14  C   UNL     1      27.419  11.203 -15.609  1.00  0.00     0.027 C 
BRANCH  14  15
HETATM   15  C   UNL     1      28.342  12.137 -16.411  1.00  0.00     0.004 C 
BRANCH  15  16
HETATM   16  C   UNL     1      28.115  13.639 -16.144  1.00  0.00     0.000 C 
BRANCH  16  17
HETATM   17  C   UNL     1      27.937  13.969 -14.653  1.00  0.00     0.000 C 
BRANCH  17  18
HETATM   18  C   UNL     1      29.105  14.818 -14.131  1.00  0.00     0.000 C 
BRANCH  18  19
HETATM   19  C   UNL     1      29.229  14.704 -12.607  1.00  0.00    -0.000 C 
BRANCH  19  20
HETATM   20  C   UNL     1      28.378  15.768 -11.903  1.00  0.00    -0.005 C 
HETATM   21  C   UNL     1      29.210  16.562 -10.901  1.00  0.00     0.005 C 
ENDBRANCH  19  20
ENDBRANCH  18  19
ENDBRANCH  17  18
ENDBRANCH  16  17
ENDBRANCH  15  16
ENDBRANCH  14  15
ENDBRANCH  13  14
ENDBRANCH  11  12
ENDBRANCH  10  11
ENDBRANCH   9  10
ENDBRANCH   8   9
ENDBRANCH   7   8
ENDBRANCH   6   7
ENDBRANCH   5   6
ENDBRANCH   3   5
ENDBRANCH   1   3
TORSDOF 16
ENDMDL
MODEL 9
REMARK VINA RESULT:      -5.1     20.144     20.954
REMARK  16 active torsions:
REMARK  status: ('A' for Active; 'I' for Inactive)
REMARK    1  A    between atoms: O_1  and  C_20 
REMARK    2  A    between atoms: C_3  and  C_4 
REMARK    3  A    between atoms: C_3  and  C_5 
REMARK    4  A    between atoms: C_4  and  C_8 
REMARK    5  A    between atoms: C_5  and  C_11 
REMARK    6  A    between atoms: C_6  and  C_7 
REMARK    7  A    between atoms: C_6  and  C_9 
REMARK    8  A    between atoms: C_7  and  C_10 
REMARK    9  A    between atoms: C_8  and  C_12 
REMARK   10  A    between atoms: C_9  and  C_13 
REMARK   11  A    between atoms: C_10  and  C_14 
REMARK   12  A    between atoms: C_11  and  C_15 
REMARK   13  A    between atoms: C_12  and  C_16 
REMARK   14  A    between atoms: C_13  and  C_17 
REMARK   15  A    between atoms: C_14  and  C_18 
REMARK   16  A    between atoms: C_18  and  C_20 
ROOT
HETATM    1  O   UNL     1      25.351  10.732  -7.504  1.00  0.00    -0.776 OA
HETATM    2  H   UNL     1      24.699  10.050  -7.718  1.00  0.00     0.167 HD
ENDROOT
BRANCH   1   3
HETATM    3  C   UNL     1      25.285  11.966  -8.047  1.00  0.00     0.139 C 
HETATM    4  O   UNL     1      24.406  12.739  -7.691  1.00  0.00    -0.650 OA
BRANCH   3   5
HETATM    5  C   UNL     1      26.302  12.363  -9.084  1.00  0.00     0.110 C 
BRANCH   5   6
HETATM    6  C   UNL     1      26.198  11.542 -10.377  1.00  0.00     0.010 C 
BRANCH   6   7
HETATM    7  C   UNL     1      24.801  11.667 -10.997  1.00  0.00     0.001 C 
BRANCH   7   8
HETATM    8  C   UNL     1      24.810  11.217 -12.462  1.00  0.00     0.000 C 
BRANCH   8   9
HETATM    9  C   UNL     1      25.064  12.402 -13.401  1.00  0.00     0.000 C 
BRANCH   9  10
HETATM   10  C   UNL     1      26.106  12.039 -14.464  1.00  0.00     0.004 C 
BRANCH  10  11
HETATM   11  C   UNL     1      25.472  11.271 -15.628  1.00  0.00     0.027 C 
BRANCH  11  12
HETATM   12  C   UNL     1      24.463  12.154 -16.322  1.00  0.00    -0.031 C 
HETATM   13  C   UNL     1      24.290  12.289 -17.652  1.00  0.00    -0.031 C 
BRANCH  13  14
HETATM   14  C   UNL     1      25.068  11.594 -18.749  1.00  0.00     0.027 C 
BRANCH  14  15
HETATM   15  C   UNL     1      26.319  12.402 -19.140  1.00  0.00     0.004 C 
BRANCH  15  16
HETATM   16  C   UNL     1      27.650  11.782 -18.668  1.00  0.00     0.000 C 
BRANCH  16  17
HETATM   17  C   UNL     1      28.377  12.636 -17.617  1.00  0.00     0.000 C 
BRANCH  17  18
HETATM   18  C   UNL     1      27.580  13.905 -17.288  1.00  0.00     0.000 C 
BRANCH  18  19
HETATM   19  C   UNL     1      28.401  15.164 -17.591  1.00  0.00    -0.000 C 
BRANCH  19  20
HETATM   20  C   UNL     1      28.990  15.762 -16.308  1.00  0.00    -0.005 C 
HETATM   21  C   UNL     1      28.974  17.286 -16.353  1.00  0.00     0.005 C 
ENDBRANCH  19  20
ENDBRANCH  18  19
ENDBRANCH  17  18
ENDBRANCH  16  17
ENDBRANCH  15  16
ENDBRANCH  14  15
ENDBRANCH  13  14
ENDBRANCH  11  12
ENDBRANCH  10  11
ENDBRANCH   9  10
ENDBRANCH   8   9
ENDBRANCH   7   8
ENDBRANCH   6   7
ENDBRANCH   5   6
ENDBRANCH   3   5
ENDBRANCH   1   3
TORSDOF 16
ENDMDL
MODEL 10
REMARK VINA RESULT:      -5.0     20.974     22.964
REMARK  16 active torsions:
REMARK  status: ('A' for Active; 'I' for Inactive)
REMARK    1  A    between atoms: O_1  and  C_20 
REMARK    2  A    between atoms: C_3  and  C_4 
REMARK    3  A    between atoms: C_3  and  C_5 
REMARK    4  A    between atoms: C_4  and  C_8 
REMARK    5  A    between atoms: C_5  and  C_11 
REMARK    6  A    between atoms: C_6  and  C_7 
REMARK    7  A    between atoms: C_6  and  C_9 
REMARK    8  A    between atoms: C_7  and  C_10 
REMARK    9  A    between atoms: C_8  and  C_12 
REMARK   10  A    between atoms: C_9  and  C_13 
REMARK   11  A    between atoms: C_10  and  C_14 
REMARK   12  A    between atoms: C_11  and  C_15 
REMARK   13  A    between atoms: C_12  and  C_16 
REMARK   14  A    between atoms: C_13  and  C_17 
REMARK   15  A    between atoms: C_14  and  C_18 
REMARK   16  A    between atoms: C_18  and  C_20 
ROOT
HETATM    1  O   UNL     1      30.877  17.014 -16.512  1.00  0.00    -0.776 OA
HETATM    2  H   UNL     1      31.840  16.912 -16.515  1.00  0.00     0.167 HD
ENDROOT
BRANCH   1   3
HETATM    3  C   UNL     1      30.055  15.946 -16.452  1.00  0.00     0.139 C 
HETATM    4  O   UNL     1      30.433  14.919 -15.903  1.00  0.00    -0.650 OA
BRANCH   3   5
HETATM    5  C   UNL     1      28.683  16.044 -17.065  1.00  0.00     0.110 C 
BRANCH   5   6
HETATM    6  C   UNL     1      27.905  14.721 -17.016  1.00  0.00     0.010 C 
BRANCH   6   7
HETATM    7  C   UNL     1      27.999  13.978 -18.354  1.00  0.00     0.001 C 
BRANCH   7   8
HETATM    8  C   UNL     1      28.355  12.504 -18.137  1.00  0.00     0.000 C 
BRANCH   8   9
HETATM    9  C   UNL     1      28.013  11.665 -19.374  1.00  0.00     0.000 C 
BRANCH   9  10
HETATM   10  C   UNL     1      26.966  12.375 -20.239  1.00  0.00     0.004 C 
BRANCH  10  11
HETATM   11  C   UNL     1      25.796  11.447 -20.575  1.00  0.00     0.027 C 
BRANCH  11  12
HETATM   12  C   UNL     1      24.511  12.052 -20.061  1.00  0.00    -0.031 C 
HETATM   13  C   UNL     1      24.063  12.032 -18.789  1.00  0.00    -0.031 C 
BRANCH  13  14
HETATM   14  C   UNL     1      24.739  11.394 -17.594  1.00  0.00     0.027 C 
BRANCH  14  15
HETATM   15  C   UNL     1      24.570  12.259 -16.332  1.00  0.00     0.004 C 
BRANCH  15  16
HETATM   16  C   UNL     1      24.638  11.472 -15.007  1.00  0.00     0.000 C 
BRANCH  16  17
HETATM   17  C   UNL     1      25.832  11.872 -14.125  1.00  0.00     0.000 C 
BRANCH  17  18
HETATM   18  C   UNL     1      25.360  12.514 -12.814  1.00  0.00     0.000 C 
BRANCH  18  19
HETATM   19  C   UNL     1      25.067  11.447 -11.753  1.00  0.00    -0.000 C 
BRANCH  19  20
HETATM   20  C   UNL     1      25.253  12.008 -10.339  1.00  0.00    -0.005 C 
HETATM   21  C   UNL     1      24.002  11.794  -9.492  1.00  0.00     0.005 C 
ENDBRANCH  19  20
ENDBRANCH  18  19
ENDBRANCH  17  18
ENDBRANCH  16  17
ENDBRANCH  15  16
ENDBRANCH  14  15
ENDBRANCH  13  14
ENDBRANCH  11  12
ENDBRANCH  10  11
ENDBRANCH   9  10
ENDBRANCH   8   9
ENDBRANCH   7   8
ENDBRANCH   6   7
ENDBRANCH   5   6
ENDBRANCH   3   5
ENDBRANCH   1   3
TORSDOF 16
ENDMDL
MODEL 11
REMARK VINA RESULT:      -5.0     22.179     23.456
REMARK  16 active torsions:
REMARK  status: ('A' for Active; 'I' for Inactive)
REMARK    1  A    between atoms: O_1  and  C_20 
REMARK    2  A    between atoms: C_3  and  C_4 
REMARK    3  A    between atoms: C_3  and  C_5 
REMARK    4  A    between atoms: C_4  and  C_8 
REMARK    5  A    between atoms: C_5  and  C_11 
REMARK    6  A    between atoms: C_6  and  C_7 
REMARK    7  A    between atoms: C_6  and  C_9 
REMARK    8  A    between atoms: C_7  and  C_10 
REMARK    9  A    between atoms: C_8  and  C_12 
REMARK   10  A    between atoms: C_9  and  C_13 
REMARK   11  A    between atoms: C_10  and  C_14 
REMARK   12  A    between atoms: C_11  and  C_15 
REMARK   13  A    between atoms: C_12  and  C_16 
REMARK   14  A    between atoms: C_13  and  C_17 
REMARK   15  A    between atoms: C_14  and  C_18 
REMARK   16  A    between atoms: C_18  and  C_20 
ROOT
HETATM    1  O   UNL     1      30.014   7.279  -7.365  1.00  0.00    -0.776 OA
HETATM    2  H   UNL     1      29.351   7.632  -7.976  1.00  0.00     0.167 HD
ENDROOT
BRANCH   1   3
HETATM    3  C   UNL     1      30.885   6.321  -7.745  1.00  0.00     0.139 C 
HETATM    4  O   UNL     1      31.420   5.617  -6.899  1.00  0.00    -0.650 OA
BRANCH   3   5
HETATM    5  C   UNL     1      31.179   6.140  -9.211  1.00  0.00     0.110 C 
BRANCH   5   6
HETATM    6  C   UNL     1      31.388   7.468  -9.952  1.00  0.00     0.010 C 
BRANCH   6   7
HETATM    7  C   UNL     1      30.608   7.488 -11.273  1.00  0.00     0.001 C 
BRANCH   7   8
HETATM    8  C   UNL     1      30.633   6.111 -11.944  1.00  0.00     0.000 C 
BRANCH   8   9
HETATM    9  C   UNL     1      30.765   6.242 -13.466  1.00  0.00     0.000 C 
BRANCH   9  10
HETATM   10  C   UNL     1      31.015   7.700 -13.866  1.00  0.00     0.004 C 
BRANCH  10  11
HETATM   11  C   UNL     1      31.262   7.831 -15.372  1.00  0.00     0.027 C 
BRANCH  11  12
HETATM   12  C   UNL     1      31.218   6.463 -16.009  1.00  0.00    -0.031 C 
HETATM   13  C   UNL     1      32.262   5.634 -16.210  1.00  0.00    -0.031 C 
BRANCH  13  14
HETATM   14  C   UNL     1      33.712   5.888 -15.851  1.00  0.00     0.027 C 
BRANCH  14  15
HETATM   15  C   UNL     1      34.392   6.792 -16.894  1.00  0.00     0.004 C 
BRANCH  15  16
HETATM   16  C   UNL     1      35.272   7.906 -16.292  1.00  0.00     0.000 C 
BRANCH  16  17
HETATM   17  C   UNL     1      35.945   7.501 -14.970  1.00  0.00     0.000 C 
BRANCH  17  18
HETATM   18  C   UNL     1      36.042   8.694 -14.011  1.00  0.00     0.000 C 
BRANCH  18  19
HETATM   19  C   UNL     1      35.589   8.303 -12.599  1.00  0.00    -0.000 C 
BRANCH  19  20
HETATM   20  C   UNL     1      34.382   7.358 -12.649  1.00  0.00    -0.005 C 
HETATM   21  C   UNL     1      34.412   6.366 -11.490  1.00  0.00     0.005 C 
ENDBRANCH  19  20
ENDBRANCH  18  19
ENDBRANCH  17  18
ENDBRANCH  16  17
ENDBRANCH  15  16
ENDBRANCH  14  15
ENDBRANCH  13  14
ENDBRANCH  11  12
ENDBRANCH  10  11
ENDBRANCH   9  10
ENDBRANCH   8   9
ENDBRANCH   7   8
ENDBRANCH   6   7
ENDBRANCH   5   6
ENDBRANCH   3   5
ENDBRANCH   1   3
TORSDOF 16
ENDMDL
MODEL 12
REMARK VINA RESULT:      -5.0     22.164     23.040
REMARK  16 active torsions:
REMARK  status: ('A' for Active; 'I' for Inactive)
REMARK    1  A    between atoms: O_1  and  C_20 
REMARK    2  A    between atoms: C_3  and  C_4 
REMARK    3  A    between atoms: C_3  and  C_5 
REMARK    4  A    between atoms: C_4  and  C_8 
REMARK    5  A    between atoms: C_5  and  C_11 
REMARK    6  A    between atoms: C_6  and  C_7 
REMARK    7  A    between atoms: C_6  and  C_9 
REMARK    8  A    between atoms: C_7  and  C_10 
REMARK    9  A    between atoms: C_8  and  C_12 
REMARK   10  A    between atoms: C_9  and  C_13 
REMARK   11  A    between atoms: C_10  and  C_14 
REMARK   12  A    between atoms: C_11  and  C_15 
REMARK   13  A    between atoms: C_12  and  C_16 
REMARK   14  A    between atoms: C_13  and  C_17 
REMARK   15  A    between atoms: C_14  and  C_18 
REMARK   16  A    between atoms: C_18  and  C_20 
ROOT
HETATM    1  O   UNL     1      33.702   5.137  -6.184  1.00  0.00    -0.776 OA
HETATM    2  H   UNL     1      34.091   4.257  -6.290  1.00  0.00     0.167 HD
ENDROOT
BRANCH   1   3
HETATM    3  C   UNL     1      33.117   5.778  -7.216  1.00  0.00     0.139 C 
HETATM    4  O   UNL     1      31.943   5.555  -7.483  1.00  0.00    -0.650 OA
BRANCH   3   5
HETATM    5  C   UNL     1      33.926   6.761  -8.021  1.00  0.00     0.110 C 
BRANCH   5   6
HETATM    6  C   UNL     1      33.585   6.742  -9.517  1.00  0.00     0.010 C 
BRANCH   6   7
HETATM    7  C   UNL     1      32.600   7.863  -9.871  1.00  0.00     0.001 C 
BRANCH   7   8
HETATM    8  C   UNL     1      31.311   7.291 -10.469  1.00  0.00     0.000 C 
BRANCH   8   9
HETATM    9  C   UNL     1      31.597   6.026 -11.287  1.00  0.00     0.000 C 
BRANCH   9  10
HETATM   10  C   UNL     1      31.033   6.157 -12.705  1.00  0.00     0.004 C 
BRANCH  10  11
HETATM   11  C   UNL     1      32.138   6.044 -13.758  1.00  0.00     0.027 C 
BRANCH  11  12
HETATM   12  C   UNL     1      33.422   6.611 -13.201  1.00  0.00    -0.031 C 
HETATM   13  C   UNL     1      34.593   6.748 -13.854  1.00  0.00    -0.031 C 
BRANCH  13  14
HETATM   14  C   UNL     1      34.890   6.359 -15.287  1.00  0.00     0.027 C 
BRANCH  14  15
HETATM   15  C   UNL     1      34.467   7.471 -16.264  1.00  0.00     0.004 C 
BRANCH  15  16
HETATM   16  C   UNL     1      34.550   7.076 -17.753  1.00  0.00     0.000 C 
BRANCH  16  17
HETATM   17  C   UNL     1      33.176   6.796 -18.383  1.00  0.00     0.000 C 
BRANCH  17  18
HETATM   18  C   UNL     1      32.375   5.794 -17.541  1.00  0.00     0.000 C 
BRANCH  18  19
HETATM   19  C   UNL     1      30.971   6.331 -17.236  1.00  0.00    -0.000 C 
BRANCH  19  20
HETATM   20  C   UNL     1      30.948   7.864 -17.266  1.00  0.00    -0.005 C 
HETATM   21  C   UNL     1      30.319   8.430 -15.997  1.00  0.00     0.005 C 
ENDBRANCH  19  20
ENDBRANCH  18  19
ENDBRANCH  17  18
ENDBRANCH  16  17
ENDBRANCH  15  16
ENDBRANCH  14  15
ENDBRANCH  13  14
ENDBRANCH  11  12
ENDBRANCH  10  11
ENDBRANCH   9  10
ENDBRANCH   8   9
ENDBRANCH   7   8
ENDBRANCH   6   7
ENDBRANCH   5   6
ENDBRANCH   3   5
ENDBRANCH   1   3
TORSDOF 16
ENDMDL
MODEL 13
REMARK VINA RESULT:      -5.0     19.785     20.444
REMARK  16 active torsions:
REMARK  status: ('A' for Active; 'I' for Inactive)
REMARK    1  A    between atoms: O_1  and  C_20 
REMARK    2  A    between atoms: C_3  and  C_4 
REMARK    3  A    between atoms: C_3  and  C_5 
REMARK    4  A    between atoms: C_4  and  C_8 
REMARK    5  A    between atoms: C_5  and  C_11 
REMARK    6  A    between atoms: C_6  and  C_7 
REMARK    7  A    between atoms: C_6  and  C_9 
REMARK    8  A    between atoms: C_7  and  C_10 
REMARK    9  A    between atoms: C_8  and  C_12 
REMARK   10  A    between atoms: C_9  and  C_13 
REMARK   11  A    between atoms: C_10  and  C_14 
REMARK   12  A    between atoms: C_11  and  C_15 
REMARK   13  A    between atoms: C_12  and  C_16 
REMARK   14  A    between atoms: C_13  and  C_17 
REMARK   15  A    between atoms: C_14  and  C_18 
REMARK   16  A    between atoms: C_18  and  C_20 
ROOT
HETATM    1  O   UNL     1      28.926  11.978  -9.883  1.00  0.00    -0.776 OA
HETATM    2  H   UNL     1      29.201  11.052  -9.830  1.00  0.00     0.167 HD
ENDROOT
BRANCH   1   3
HETATM    3  C   UNL     1      27.702  12.375  -9.477  1.00  0.00     0.139 C 
HETATM    4  O   UNL     1      27.576  13.429  -8.868  1.00  0.00    -0.650 OA
BRANCH   3   5
HETATM    5  C   UNL     1      26.512  11.504  -9.784  1.00  0.00     0.110 C 
BRANCH   5   6
HETATM    6  C   UNL     1      25.176  12.145  -9.384  1.00  0.00     0.010 C 
BRANCH   6   7
HETATM    7  C   UNL     1      24.172  12.094 -10.543  1.00  0.00     0.001 C 
BRANCH   7   8
HETATM    8  C   UNL     1      24.897  12.010 -11.890  1.00  0.00     0.000 C 
BRANCH   8   9
HETATM    9  C   UNL     1      24.056  12.637 -13.009  1.00  0.00     0.000 C 
BRANCH   9  10
HETATM   10  C   UNL     1      24.130  11.790 -14.284  1.00  0.00     0.004 C 
BRANCH  10  11
HETATM   11  C   UNL     1      25.476  11.964 -14.992  1.00  0.00     0.027 C 
BRANCH  11  12
HETATM   12  C   UNL     1      25.592  10.950 -16.105  1.00  0.00    -0.031 C 
HETATM   13  C   UNL     1      25.102  11.064 -17.355  1.00  0.00    -0.031 C 
BRANCH  13  14
HETATM   14  C   UNL     1      24.318  12.228 -17.925  1.00  0.00     0.027 C 
BRANCH  14  15
HETATM   15  C   UNL     1      24.100  12.064 -19.439  1.00  0.00     0.004 C 
BRANCH  15  16
HETATM   16  C   UNL     1      25.299  11.452 -20.192  1.00  0.00     0.000 C 
BRANCH  16  17
HETATM   17  C   UNL     1      26.288  12.506 -20.716  1.00  0.00     0.000 C 
BRANCH  17  18
HETATM   18  C   UNL     1      27.264  12.943 -19.616  1.00  0.00     0.000 C 
BRANCH  18  19
HETATM   19  C   UNL     1      28.676  12.411 -19.890  1.00  0.00    -0.000 C 
BRANCH  19  20
HETATM   20  C   UNL     1      29.531  12.433 -18.618  1.00  0.00    -0.005 C 
HETATM   21  C   UNL     1      28.663  12.599 -17.374  1.00  0.00     0.005 C 
ENDBRANCH  19  20
ENDBRANCH  18  19
ENDBRANCH  17  18
ENDBRANCH  16  17
ENDBRANCH  15  16
ENDBRANCH  14  15
ENDBRANCH  13  14
ENDBRANCH  11  12
ENDBRANCH  10  11
ENDBRANCH   9  10
ENDBRANCH   8   9
ENDBRANCH   7   8
ENDBRANCH   6   7
ENDBRANCH   5   6
ENDBRANCH   3   5
ENDBRANCH   1   3
TORSDOF 16
ENDMDL
MODEL 14
REMARK VINA RESULT:      -4.9     20.016     22.708
REMARK  16 active torsions:
REMARK  status: ('A' for Active; 'I' for Inactive)
REMARK    1  A    between atoms: O_1  and  C_20 
REMARK    2  A    between atoms: C_3  and  C_4 
REMARK    3  A    between atoms: C_3  and  C_5 
REMARK    4  A    between atoms: C_4  and  C_8 
REMARK    5  A    between atoms: C_5  and  C_11 
REMARK    6  A    between atoms: C_6  and  C_7 
REMARK    7  A    between atoms: C_6  and  C_9 
REMARK    8  A    between atoms: C_7  and  C_10 
REMARK    9  A    between atoms: C_8  and  C_12 
REMARK   10  A    between atoms: C_9  and  C_13 
REMARK   11  A    between atoms: C_10  and  C_14 
REMARK   12  A    between atoms: C_11  and  C_15 
REMARK   13  A    between atoms: C_12  and  C_16 
REMARK   14  A    between atoms: C_13  and  C_17 
REMARK   15  A    between atoms: C_14  and  C_18 
REMARK   16  A    between atoms: C_18  and  C_20 
ROOT
HETATM    1  O   UNL     1      26.495  13.381 -22.066  1.00  0.00    -0.776 OA
HETATM    2  H   UNL     1      26.788  14.169 -22.547  1.00  0.00     0.167 HD
ENDROOT
BRANCH   1   3
HETATM    3  C   UNL     1      25.962  12.320 -22.707  1.00  0.00     0.139 C 
HETATM    4  O   UNL     1      26.150  12.180 -23.908  1.00  0.00    -0.650 OA
BRANCH   3   5
HETATM    5  C   UNL     1      25.143  11.328 -21.925  1.00  0.00     0.110 C 
BRANCH   5   6
HETATM    6  C   UNL     1      24.297  11.981 -20.823  1.00  0.00     0.010 C 
BRANCH   6   7
HETATM    7  C   UNL     1      24.598  11.355 -19.455  1.00  0.00     0.001 C 
BRANCH   7   8
HETATM    8  C   UNL     1      23.998  12.198 -18.324  1.00  0.00     0.000 C 
BRANCH   8   9
HETATM    9  C   UNL     1      25.059  12.549 -17.275  1.00  0.00     0.000 C 
BRANCH   9  10
HETATM   10  C   UNL     1      25.785  11.288 -16.794  1.00  0.00     0.004 C 
BRANCH  10  11
HETATM   11  C   UNL     1      25.740  11.166 -15.268  1.00  0.00     0.027 C 
BRANCH  11  12
HETATM   12  C   UNL     1      24.305  11.222 -14.802  1.00  0.00    -0.031 C 
HETATM   13  C   UNL     1      23.833  11.882 -13.726  1.00  0.00    -0.031 C 
BRANCH  13  14
HETATM   14  C   UNL     1      24.631  12.707 -12.738  1.00  0.00     0.027 C 
BRANCH  14  15
HETATM   15  C   UNL     1      24.620  12.064 -11.340  1.00  0.00     0.004 C 
BRANCH  15  16
HETATM   16  C   UNL     1      25.718  11.003 -11.119  1.00  0.00     0.000 C 
BRANCH  16  17
HETATM   17  C   UNL     1      27.082  11.412 -11.698  1.00  0.00     0.000 C 
BRANCH  17  18
HETATM   18  C   UNL     1      28.069  11.778 -10.582  1.00  0.00     0.000 C 
BRANCH  18  19
HETATM   19  C   UNL     1      27.450  11.539  -9.200  1.00  0.00    -0.000 C 
BRANCH  19  20
HETATM   20  C   UNL     1      28.368  12.058  -8.087  1.00  0.00    -0.005 C 
HETATM   21  C   UNL     1      29.462  12.959  -8.651  1.00  0.00     0.005 C 
ENDBRANCH  19  20
ENDBRANCH  18  19
ENDBRANCH  17  18
ENDBRANCH  16  17
ENDBRANCH  15  16
ENDBRANCH  14  15
ENDBRANCH  13  14
ENDBRANCH  11  12
ENDBRANCH  10  11
ENDBRANCH   9  10
ENDBRANCH   8   9
ENDBRANCH   7   8
ENDBRANCH   6   7
ENDBRANCH   5   6
ENDBRANCH   3   5
ENDBRANCH   1   3
TORSDOF 16
ENDMDL
MODEL 15
REMARK VINA RESULT:      -4.9     19.607     20.484
REMARK  16 active torsions:
REMARK  status: ('A' for Active; 'I' for Inactive)
REMARK    1  A    between atoms: O_1  and  C_20 
REMARK    2  A    between atoms: C_3  and  C_4 
REMARK    3  A    between atoms: C_3  and  C_5 
REMARK    4  A    between atoms: C_4  and  C_8 
REMARK    5  A    between atoms: C_5  and  C_11 
REMARK    6  A    between atoms: C_6  and  C_7 
REMARK    7  A    between atoms: C_6  and  C_9 
REMARK    8  A    between atoms: C_7  and  C_10 
REMARK    9  A    between atoms: C_8  and  C_12 
REMARK   10  A    between atoms: C_9  and  C_13 
REMARK   11  A    between atoms: C_10  and  C_14 
REMARK   12  A    between atoms: C_11  and  C_15 
REMARK   13  A    between atoms: C_12  and  C_16 
REMARK   14  A    between atoms: C_13  and  C_17 
REMARK   15  A    between atoms: C_14  and  C_18 
REMARK   16  A    between atoms: C_18  and  C_20 
ROOT
HETATM    1  O   UNL     1      23.846  12.816 -11.132  1.00  0.00    -0.776 OA
HETATM    2  H   UNL     1      23.713  13.054 -12.060  1.00  0.00     0.167 HD
ENDROOT
BRANCH   1   3
HETATM    3  C   UNL     1      24.814  11.953 -10.757  1.00  0.00     0.139 C 
HETATM    4  O   UNL     1      25.148  11.888  -9.582  1.00  0.00    -0.650 OA
BRANCH   3   5
HETATM    5  C   UNL     1      25.462  11.083 -11.802  1.00  0.00     0.110 C 
BRANCH   5   6
HETATM    6  C   UNL     1      26.192  11.887 -12.887  1.00  0.00     0.010 C 
BRANCH   6   7
HETATM    7  C   UNL     1      25.825  11.379 -14.288  1.00  0.00     0.001 C 
BRANCH   7   8
HETATM    8  C   UNL     1      27.063  11.322 -15.190  1.00  0.00     0.000 C 
BRANCH   8   9
HETATM    9  C   UNL     1      26.674  11.444 -16.668  1.00  0.00     0.000 C 
BRANCH   9  10
HETATM   10  C   UNL     1      25.163  11.267 -16.848  1.00  0.00     0.004 C 
BRANCH  10  11
HETATM   11  C   UNL     1      24.573  12.369 -17.733  1.00  0.00     0.027 C 
BRANCH  11  12
HETATM   12  C   UNL     1      23.933  11.746 -18.950  1.00  0.00    -0.031 C 
HETATM   13  C   UNL     1      24.439  11.713 -20.200  1.00  0.00    -0.031 C 
BRANCH  13  14
HETATM   14  C   UNL     1      25.755  12.298 -20.667  1.00  0.00     0.027 C 
BRANCH  14  15
HETATM   15  C   UNL     1      26.711  11.196 -21.156  1.00  0.00     0.004 C 
BRANCH  15  16
HETATM   16  C   UNL     1      27.855  10.864 -20.176  1.00  0.00     0.000 C 
BRANCH  16  17
HETATM   17  C   UNL     1      29.184  10.547 -20.880  1.00  0.00     0.000 C 
BRANCH  17  18
HETATM   18  C   UNL     1      29.793   9.242 -20.350  1.00  0.00     0.000 C 
BRANCH  18  19
HETATM   19  C   UNL     1      31.239   9.075 -20.831  1.00  0.00    -0.000 C 
BRANCH  19  20
HETATM   20  C   UNL     1      31.299   8.267 -22.132  1.00  0.00    -0.005 C 
HETATM   21  C   UNL     1      30.649   6.897 -21.960  1.00  0.00     0.005 C 
ENDBRANCH  19  20
ENDBRANCH  18  19
ENDBRANCH  17  18
ENDBRANCH  16  17
ENDBRANCH  15  16
ENDBRANCH  14  15
ENDBRANCH  13  14
ENDBRANCH  11  12
ENDBRANCH  10  11
ENDBRANCH   9  10
ENDBRANCH   8   9
ENDBRANCH   7   8
ENDBRANCH   6   7
ENDBRANCH   5   6
ENDBRANCH   3   5
ENDBRANCH   1   3
TORSDOF 16
ENDMDL
MODEL 16
REMARK VINA RESULT:      -4.9     20.142     21.430
REMARK  16 active torsions:
REMARK  status: ('A' for Active; 'I' for Inactive)
REMARK    1  A    between atoms: O_1  and  C_20 
REMARK    2  A    between atoms: C_3  and  C_4 
REMARK    3  A    between atoms: C_3  and  C_5 
REMARK    4  A    between atoms: C_4  and  C_8 
REMARK    5  A    between atoms: C_5  and  C_11 
REMARK    6  A    between atoms: C_6  and  C_7 
REMARK    7  A    between atoms: C_6  and  C_9 
REMARK    8  A    between atoms: C_7  and  C_10 
REMARK    9  A    between atoms: C_8  and  C_12 
REMARK   10  A    between atoms: C_9  and  C_13 
REMARK   11  A    between atoms: C_10  and  C_14 
REMARK   12  A    between atoms: C_11  and  C_15 
REMARK   13  A    between atoms: C_12  and  C_16 
REMARK   14  A    between atoms: C_13  and  C_17 
REMARK   15  A    between atoms: C_14  and  C_18 
REMARK   16  A    between atoms: C_18  and  C_20 
ROOT
HETATM    1  O   UNL     1      25.519  10.490 -12.132  1.00  0.00    -0.776 OA
HETATM    2  H   UNL     1      25.940  10.032 -11.391  1.00  0.00     0.167 HD
ENDROOT
BRANCH   1   3
HETATM    3  C   UNL     1      24.916  11.686 -11.971  1.00  0.00     0.139 C 
HETATM    4  O   UNL     1      24.747  12.134 -10.845  1.00  0.00    -0.650 OA
BRANCH   3   5
HETATM    5  C   UNL     1      24.463  12.447 -13.189  1.00  0.00     0.110 C 
BRANCH   5   6
HETATM    6  C   UNL     1      24.165  11.539 -14.391  1.00  0.00     0.010 C 
BRANCH   6   7
HETATM    7  C   UNL     1      24.830  12.077 -15.664  1.00  0.00     0.001 C 
BRANCH   7   8
HETATM    8  C   UNL     1      25.352  10.929 -16.535  1.00  0.00     0.000 C 
BRANCH   8   9
HETATM    9  C   UNL     1      26.273  11.452 -17.643  1.00  0.00     0.000 C 
BRANCH   9  10
HETATM   10  C   UNL     1      26.716  12.888 -17.348  1.00  0.00     0.004 C 
BRANCH  10  11
HETATM   11  C   UNL     1      28.212  12.957 -17.030  1.00  0.00     0.027 C 
BRANCH  11  12
HETATM   12  C   UNL     1      28.408  13.583 -15.670  1.00  0.00    -0.031 C 
HETATM   13  C   UNL     1      28.396  12.948 -14.481  1.00  0.00    -0.031 C 
BRANCH  13  14
HETATM   14  C   UNL     1      28.177  11.470 -14.238  1.00  0.00     0.027 C 
BRANCH  14  15
HETATM   15  C   UNL     1      29.489  10.680 -14.391  1.00  0.00     0.004 C 
BRANCH  15  16
HETATM   16  C   UNL     1      29.486   9.659 -15.547  1.00  0.00     0.000 C 
BRANCH  16  17
HETATM   17  C   UNL     1      30.682   9.819 -16.500  1.00  0.00     0.000 C 
BRANCH  17  18
HETATM   18  C   UNL     1      31.463   8.505 -16.633  1.00  0.00     0.000 C 
BRANCH  18  19
HETATM   19  C   UNL     1      30.511   7.310 -16.757  1.00  0.00    -0.000 C 
BRANCH  19  20
HETATM   20  C   UNL     1      31.203   6.007 -16.338  1.00  0.00    -0.005 C 
HETATM   21  C   UNL     1      32.173   6.245 -15.186  1.00  0.00     0.005 C 
ENDBRANCH  19  20
ENDBRANCH  18  19
ENDBRANCH  17  18
ENDBRANCH  16  17
ENDBRANCH  15  16
ENDBRANCH  14  15
ENDBRANCH  13  14
ENDBRANCH  11  12
ENDBRANCH  10  11
ENDBRANCH   9  10
ENDBRANCH   8   9
ENDBRANCH   7   8
ENDBRANCH   6   7
ENDBRANCH   5   6
ENDBRANCH   3   5
ENDBRANCH   1   3
TORSDOF 16
ENDMDL
MODEL 17
REMARK VINA RESULT:      -4.8     21.688     23.629
REMARK  16 active torsions:
REMARK  status: ('A' for Active; 'I' for Inactive)
REMARK    1  A    between atoms: O_1  and  C_20 
REMARK    2  A    between atoms: C_3  and  C_4 
REMARK    3  A    between atoms: C_3  and  C_5 
REMARK    4  A    between atoms: C_4  and  C_8 
REMARK    5  A    between atoms: C_5  and  C_11 
REMARK    6  A    between atoms: C_6  and  C_7 
REMARK    7  A    between atoms: C_6  and  C_9 
REMARK    8  A    between atoms: C_7  and  C_10 
REMARK    9  A    between atoms: C_8  and  C_12 
REMARK   10  A    between atoms: C_9  and  C_13 
REMARK   11  A    between atoms: C_10  and  C_14 
REMARK   12  A    between atoms: C_11  and  C_15 
REMARK   13  A    between atoms: C_12  and  C_16 
REMARK   14  A    between atoms: C_13  and  C_17 
REMARK   15  A    between atoms: C_14  and  C_18 
REMARK   16  A    between atoms: C_18  and  C_20 
ROOT
HETATM    1  O   UNL     1      26.671  11.065 -17.625  1.00  0.00    -0.776 OA
HETATM    2  H   UNL     1      27.109  10.627 -18.369  1.00  0.00     0.167 HD
ENDROOT
BRANCH   1   3
HETATM    3  C   UNL     1      25.666  11.945 -17.818  1.00  0.00     0.139 C 
HETATM    4  O   UNL     1      25.831  13.125 -17.540  1.00  0.00    -0.650 OA
BRANCH   3   5
HETATM    5  C   UNL     1      24.357  11.449 -18.375  1.00  0.00     0.110 C 
BRANCH   5   6
HETATM    6  C   UNL     1      23.945  12.162 -19.670  1.00  0.00     0.010 C 
BRANCH   6   7
HETATM    7  C   UNL     1      24.710  11.599 -20.875  1.00  0.00     0.001 C 
BRANCH   7   8
HETATM    8  C   UNL     1      24.303  12.319 -22.165  1.00  0.00     0.000 C 
BRANCH   8   9
HETATM    9  C   UNL     1      24.311  11.357 -23.359  1.00  0.00     0.000 C 
BRANCH   9  10
HETATM   10  C   UNL     1      24.984  12.004 -24.574  1.00  0.00     0.004 C 
BRANCH  10  11
HETATM   11  C   UNL     1      26.493  11.745 -24.582  1.00  0.00     0.027 C 
BRANCH  11  12
HETATM   12  C   UNL     1      27.227  13.048 -24.372  1.00  0.00    -0.031 C 
HETATM   13  C   UNL     1      27.865  13.442 -23.252  1.00  0.00    -0.031 C 
BRANCH  13  14
HETATM   14  C   UNL     1      27.984  12.676 -21.952  1.00  0.00     0.027 C 
BRANCH  14  15
HETATM   15  C   UNL     1      27.655  13.572 -20.745  1.00  0.00     0.004 C 
BRANCH  15  16
HETATM   16  C   UNL     1      28.646  13.447 -19.570  1.00  0.00     0.000 C 
BRANCH  16  17
HETATM   17  C   UNL     1      28.884  14.776 -18.834  1.00  0.00     0.000 C 
BRANCH  17  18
HETATM   18  C   UNL     1      30.383  15.078 -18.709  1.00  0.00     0.000 C 
BRANCH  18  19
HETATM   19  C   UNL     1      30.706  16.481 -19.238  1.00  0.00    -0.000 C 
BRANCH  19  20
HETATM   20  C   UNL     1      29.425  17.284 -19.492  1.00  0.00    -0.005 C 
HETATM   21  C   UNL     1      29.189  18.308 -18.386  1.00  0.00     0.005 C 
ENDBRANCH  19  20
ENDBRANCH  18  19
ENDBRANCH  17  18
ENDBRANCH  16  17
ENDBRANCH  15  16
ENDBRANCH  14  15
ENDBRANCH  13  14
ENDBRANCH  11  12
ENDBRANCH  10  11
ENDBRANCH   9  10
ENDBRANCH   8   9
ENDBRANCH   7   8
ENDBRANCH   6   7
ENDBRANCH   5   6
ENDBRANCH   3   5
ENDBRANCH   1   3
TORSDOF 16
ENDMDL
MODEL 18
REMARK VINA RESULT:      -4.8     23.460     25.350
REMARK  16 active torsions:
REMARK  status: ('A' for Active; 'I' for Inactive)
REMARK    1  A    between atoms: O_1  and  C_20 
REMARK    2  A    between atoms: C_3  and  C_4 
REMARK    3  A    between atoms: C_3  and  C_5 
REMARK    4  A    between atoms: C_4  and  C_8 
REMARK    5  A    between atoms: C_5  and  C_11 
REMARK    6  A    between atoms: C_6  and  C_7 
REMARK    7  A    between atoms: C_6  and  C_9 
REMARK    8  A    between atoms: C_7  and  C_10 
REMARK    9  A    between atoms: C_8  and  C_12 
REMARK   10  A    between atoms: C_9  and  C_13 
REMARK   11  A    between atoms: C_10  and  C_14 
REMARK   12  A    between atoms: C_11  and  C_15 
REMARK   13  A    between atoms: C_12  and  C_16 
REMARK   14  A    between atoms: C_13  and  C_17 
REMARK   15  A    between atoms: C_14  and  C_18 
REMARK   16  A    between atoms: C_18  and  C_20 
ROOT
HETATM    1  O   UNL     1      30.429   7.838 -18.144  1.00  0.00    -0.776 OA
HETATM    2  H   UNL     1      30.391   8.523 -17.461  1.00  0.00     0.167 HD
ENDROOT
BRANCH   1   3
HETATM    3  C   UNL     1      30.841   6.584 -17.863  1.00  0.00     0.139 C 
HETATM    4  O   UNL     1      30.161   5.870 -17.139  1.00  0.00    -0.650 OA
BRANCH   3   5
HETATM    5  C   UNL     1      32.137   6.091 -18.451  1.00  0.00     0.110 C 
BRANCH   5   6
HETATM    6  C   UNL     1      32.270   6.388 -19.951  1.00  0.00     0.010 C 
BRANCH   6   7
HETATM    7  C   UNL     1      33.734   6.305 -20.400  1.00  0.00     0.001 C 
BRANCH   7   8
HETATM    8  C   UNL     1      34.682   6.535 -19.218  1.00  0.00     0.000 C 
BRANCH   8   9
HETATM    9  C   UNL     1      35.842   7.457 -19.612  1.00  0.00     0.000 C 
BRANCH   9  10
HETATM   10  C   UNL     1      35.888   8.690 -18.703  1.00  0.00     0.004 C 
BRANCH  10  11
HETATM   11  C   UNL     1      34.931   8.545 -17.516  1.00  0.00     0.027 C 
BRANCH  11  12
HETATM   12  C   UNL     1      35.716   8.610 -16.228  1.00  0.00    -0.031 C 
HETATM   13  C   UNL     1      35.729   7.688 -15.244  1.00  0.00    -0.031 C 
BRANCH  13  14
HETATM   14  C   UNL     1      34.955   6.387 -15.203  1.00  0.00     0.027 C 
BRANCH  14  15
HETATM   15  C   UNL     1      33.924   6.389 -14.060  1.00  0.00     0.004 C 
BRANCH  15  16
HETATM   16  C   UNL     1      32.456   6.455 -14.529  1.00  0.00     0.000 C 
BRANCH  16  17
HETATM   17  C   UNL     1      31.728   7.728 -14.066  1.00  0.00     0.000 C 
BRANCH  17  18
HETATM   18  C   UNL     1      31.859   8.848 -15.106  1.00  0.00     0.000 C 
BRANCH  18  19
HETATM   19  C   UNL     1      32.329  10.153 -14.452  1.00  0.00    -0.000 C 
BRANCH  19  20
HETATM   20  C   UNL     1      33.304   9.875 -13.302  1.00  0.00    -0.005 C 
HETATM   21  C   UNL     1      34.557  10.736 -13.423  1.00  0.00     0.005 C 
ENDBRANCH  19  20
ENDBRANCH  18  19
ENDBRANCH  17  18
ENDBRANCH  16  17
ENDBRANCH  15  16
ENDBRANCH  14  15
ENDBRANCH  13  14
ENDBRANCH  11  12
ENDBRANCH  10  11
ENDBRANCH   9  10
ENDBRANCH   8   9
ENDBRANCH   7   8
ENDBRANCH   6   7
ENDBRANCH   5   6
ENDBRANCH   3   5
ENDBRANCH   1   3
TORSDOF 16
ENDMDL
MODEL 19
REMARK VINA RESULT:      -4.8     19.774     20.468
REMARK  16 active torsions:
REMARK  status: ('A' for Active; 'I' for Inactive)
REMARK    1  A    between atoms: O_1  and  C_20 
REMARK    2  A    between atoms: C_3  and  C_4 
REMARK    3  A    between atoms: C_3  and  C_5 
REMARK    4  A    between atoms: C_4  and  C_8 
REMARK    5  A    between atoms: C_5  and  C_11 
REMARK    6  A    between atoms: C_6  and  C_7 
REMARK    7  A    between atoms: C_6  and  C_9 
REMARK    8  A    between atoms: C_7  and  C_10 
REMARK    9  A    between atoms: C_8  and  C_12 
REMARK   10  A    between atoms: C_9  and  C_13 
REMARK   11  A    between atoms: C_10  and  C_14 
REMARK   12  A    between atoms: C_11  and  C_15 
REMARK   13  A    between atoms: C_12  and  C_16 
REMARK   14  A    between atoms: C_13  and  C_17 
REMARK   15  A    between atoms: C_14  and  C_18 
REMARK   16  A    between atoms: C_18  and  C_20 
ROOT
HETATM    1  O   UNL     1      25.609  10.927  -8.528  1.00  0.00    -0.776 OA
HETATM    2  H   UNL     1      25.286  10.950  -7.616  1.00  0.00     0.167 HD
ENDROOT
BRANCH   1   3
HETATM    3  C   UNL     1      25.065  11.702  -9.489  1.00  0.00     0.139 C 
HETATM    4  O   UNL     1      23.927  12.131  -9.351  1.00  0.00    -0.650 OA
BRANCH   3   5
HETATM    5  C   UNL     1      25.876  12.022 -10.716  1.00  0.00     0.110 C 
BRANCH   5   6
HETATM    6  C   UNL     1      25.361  11.320 -11.980  1.00  0.00     0.010 C 
BRANCH   6   7
HETATM    7  C   UNL     1      24.441  12.245 -12.787  1.00  0.00     0.001 C 
BRANCH   7   8
HETATM    8  C   UNL     1      23.977  11.564 -14.079  1.00  0.00     0.000 C 
BRANCH   8   9
HETATM    9  C   UNL     1      24.730  12.115 -15.294  1.00  0.00     0.000 C 
BRANCH   9  10
HETATM   10  C   UNL     1      24.929  11.024 -16.351  1.00  0.00     0.004 C 
BRANCH  10  11
HETATM   11  C   UNL     1      25.321  11.622 -17.705  1.00  0.00     0.027 C 
BRANCH  11  12
HETATM   12  C   UNL     1      26.203  12.828 -17.484  1.00  0.00    -0.031 C 
HETATM   13  C   UNL     1      27.535  12.900 -17.681  1.00  0.00    -0.031 C 
BRANCH  13  14
HETATM   14  C   UNL     1      28.448  11.790 -18.158  1.00  0.00     0.027 C 
BRANCH  14  15
HETATM   15  C   UNL     1      28.682  11.876 -19.676  1.00  0.00     0.004 C 
BRANCH  15  16
HETATM   16  C   UNL     1      28.061  10.717 -20.482  1.00  0.00     0.000 C 
BRANCH  16  17
HETATM   17  C   UNL     1      26.630  11.010 -20.962  1.00  0.00     0.000 C 
BRANCH  17  18
HETATM   18  C   UNL     1      26.629  11.562 -22.394  1.00  0.00     0.000 C 
BRANCH  18  19
HETATM   19  C   UNL     1      26.434  13.083 -22.397  1.00  0.00    -0.000 C 
BRANCH  19  20
HETATM   20  C   UNL     1      27.694  13.799 -22.897  1.00  0.00    -0.005 C 
HETATM   21  C   UNL     1      28.069  14.959 -21.979  1.00  0.00     0.005 C 
ENDBRANCH  19  20
ENDBRANCH  18  19
ENDBRANCH  17  18
ENDBRANCH  16  17
ENDBRANCH  15  16
ENDBRANCH  14  15
ENDBRANCH  13  14
ENDBRANCH  11  12
ENDBRANCH  10  11
ENDBRANCH   9  10
ENDBRANCH   8   9
ENDBRANCH   7   8
ENDBRANCH   6   7
ENDBRANCH   5   6
ENDBRANCH   3   5
ENDBRANCH   1   3
TORSDOF 16
ENDMDL
MODEL 20
REMARK VINA RESULT:      -4.7     39.003     40.739
REMARK  16 active torsions:
REMARK  status: ('A' for Active; 'I' for Inactive)
REMARK    1  A    between atoms: O_1  and  C_20 
REMARK    2  A    between atoms: C_3  and  C_4 
REMARK    3  A    between atoms: C_3  and  C_5 
REMARK    4  A    between atoms: C_4  and  C_8 
REMARK    5  A    between atoms: C_5  and  C_11 
REMARK    6  A    between atoms: C_6  and  C_7 
REMARK    7  A    between atoms: C_6  and  C_9 
REMARK    8  A    between atoms: C_7  and  C_10 
REMARK    9  A    between atoms: C_8  and  C_12 
REMARK   10  A    between atoms: C_9  and  C_13 
REMARK   11  A    between atoms: C_10  and  C_14 
REMARK   12  A    between atoms: C_11  and  C_15 
REMARK   13  A    between atoms: C_12  and  C_16 
REMARK   14  A    between atoms: C_13  and  C_17 
REMARK   15  A    between atoms: C_14  and  C_18 
REMARK   16  A    between atoms: C_18  and  C_20 
ROOT
HETATM    1  O   UNL     1      49.139 -17.496 -17.154  1.00  0.00    -0.776 OA
HETATM    2  H   UNL     1      49.030 -16.672 -16.658  1.00  0.00     0.167 HD
ENDROOT
BRANCH   1   3
HETATM    3  C   UNL     1      48.371 -18.577 -16.903  1.00  0.00     0.139 C 
HETATM    4  O   UNL     1      48.762 -19.689 -17.234  1.00  0.00    -0.650 OA
BRANCH   3   5
HETATM    5  C   UNL     1      47.044 -18.388 -16.218  1.00  0.00     0.110 C 
BRANCH   5   6
HETATM    6  C   UNL     1      47.080 -18.742 -14.725  1.00  0.00     0.010 C 
BRANCH   6   7
HETATM    7  C   UNL     1      47.724 -17.614 -13.909  1.00  0.00     0.001 C 
BRANCH   7   8
HETATM    8  C   UNL     1      48.961 -18.120 -13.158  1.00  0.00     0.000 C 
BRANCH   8   9
HETATM    9  C   UNL     1      48.636 -18.403 -11.687  1.00  0.00     0.000 C 
BRANCH   9  10
HETATM   10  C   UNL     1      48.381 -19.897 -11.464  1.00  0.00     0.004 C 
BRANCH  10  11
HETATM   11  C   UNL     1      47.165 -20.129 -10.565  1.00  0.00     0.027 C 
BRANCH  11  12
HETATM   12  C   UNL     1      45.955 -19.461 -11.175  1.00  0.00    -0.031 C 
HETATM   13  C   UNL     1      45.244 -18.444 -10.647  1.00  0.00    -0.031 C 
BRANCH  13  14
HETATM   14  C   UNL     1      45.489 -17.748  -9.326  1.00  0.00     0.027 C 
BRANCH  14  15
HETATM   15  C   UNL     1      44.381 -18.077  -8.309  1.00  0.00     0.004 C 
BRANCH  15  16
HETATM   16  C   UNL     1      44.537 -19.448  -7.620  1.00  0.00     0.000 C 
BRANCH  16  17
HETATM   17  C   UNL     1      45.940 -19.677  -7.034  1.00  0.00     0.000 C 
BRANCH  17  18
HETATM   18  C   UNL     1      46.208 -18.731  -5.856  1.00  0.00     0.000 C 
BRANCH  18  19
HETATM   19  C   UNL     1      47.602 -18.101  -5.963  1.00  0.00    -0.000 C 
BRANCH  19  20
HETATM   20  C   UNL     1      48.435 -18.786  -7.052  1.00  0.00    -0.005 C 
HETATM   21  C   UNL     1      48.911 -17.780  -8.095  1.00  0.00     0.005 C 
ENDBRANCH  19  20
ENDBRANCH  18  19
ENDBRANCH  17  18
ENDBRANCH  16  17
ENDBRANCH  15  16
ENDBRANCH  14  15
ENDBRANCH  13  14
ENDBRANCH  11  12
ENDBRANCH  10  11
ENDBRANCH   9  10
ENDBRANCH   8   9
ENDBRANCH   7   8
ENDBRANCH   6   7
ENDBRANCH   5   6
ENDBRANCH   3   5
ENDBRANCH   1   3
TORSDOF 16
ENDMDL
