MODEL 1
REMARK VINA RESULT:      -5.9      0.000      0.000
REMARK  17 active torsions:
REMARK  status: ('A' for Active; 'I' for Inactive)
REMARK    1  A    between atoms: O_1  and  C_20 
REMARK    2  A    between atoms: C_3  and  C_4 
REMARK    3  A    between atoms: C_3  and  C_5 
REMARK    4  A    between atoms: C_4  and  C_6 
REMARK    5  A    between atoms: C_5  and  C_7 
REMARK    6  A    between atoms: C_6  and  C_8 
REMARK    7  A    between atoms: C_7  and  C_9 
REMARK    8  A    between atoms: C_8  and  C_10 
REMARK    9  A    between atoms: C_9  and  C_11 
REMARK   10  A    between atoms: C_10  and  C_12 
REMARK   11  A    between atoms: C_11  and  C_13 
REMARK   12  A    between atoms: C_12  and  C_14 
REMARK   13  A    between atoms: C_13  and  C_15 
REMARK   14  A    between atoms: C_14  and  C_16 
REMARK   15  A    between atoms: C_15  and  C_17 
REMARK   16  A    between atoms: C_16  and  C_18 
REMARK   17  A    between atoms: C_18  and  C_20 
ROOT
HETATM    1  O   UNL     1      13.527  -1.870 -20.907  1.00  0.00    -0.776 OA
HETATM    2  H   UNL     1      13.975  -1.017 -20.821  1.00  0.00     0.167 HD
ENDROOT
BRANCH   1   3
HETATM    3  C   UNL     1      12.224  -1.952 -21.247  1.00  0.00     0.139 C 
HETATM    4  O   UNL     1      11.913  -2.153 -22.411  1.00  0.00    -0.650 OA
BRANCH   3   5
HETATM    5  C   UNL     1      11.150  -1.757 -20.209  1.00  0.00     0.110 C 
BRANCH   5   6
HETATM    6  C   UNL     1      11.700  -1.553 -18.784  1.00  0.00     0.010 C 
BRANCH   6   7
HETATM    7  C   UNL     1      11.199  -2.552 -17.721  1.00  0.00     0.001 C 
BRANCH   7   8
HETATM    8  C   UNL     1      10.989  -1.955 -16.316  1.00  0.00     0.000 C 
BRANCH   8   9
HETATM    9  C   UNL     1      12.282  -1.575 -15.566  1.00  0.00     0.000 C 
BRANCH   9  10
HETATM   10  C   UNL     1      12.245  -1.807 -14.042  1.00  0.00     0.000 C 
BRANCH  10  11
HETATM   11  C   UNL     1      10.891  -2.297 -13.489  1.00  0.00     0.000 C 
BRANCH  11  12
HETATM   12  C   UNL     1      10.691  -2.090 -11.975  1.00  0.00     0.000 C 
BRANCH  12  13
HETATM   13  C   UNL     1      11.985  -2.108 -11.136  1.00  0.00     0.000 C 
BRANCH  13  14
HETATM   14  C   UNL     1      11.860  -1.480  -9.734  1.00  0.00     0.000 C 
BRANCH  14  15
HETATM   15  C   UNL     1      11.070  -2.320  -8.710  1.00  0.00     0.000 C 
BRANCH  15  16
HETATM   16  C   UNL     1      10.648  -1.567  -7.434  1.00  0.00     0.000 C 
BRANCH  16  17
HETATM   17  C   UNL     1      11.813  -1.088  -6.544  1.00  0.00     0.000 C 
BRANCH  17  18
HETATM   18  C   UNL     1      12.116  -1.985  -5.327  1.00  0.00     0.000 C 
BRANCH  18  19
HETATM   19  C   UNL     1      11.948  -1.300  -3.955  1.00  0.00    -0.000 C 
BRANCH  19  20
HETATM   20  C   UNL     1      11.705  -2.255  -2.771  1.00  0.00    -0.005 C 
HETATM   21  C   UNL     1      10.355  -2.969  -2.840  1.00  0.00     0.005 C 
ENDBRANCH  19  20
ENDBRANCH  18  19
ENDBRANCH  17  18
ENDBRANCH  16  17
ENDBRANCH  15  16
ENDBRANCH  14  15
ENDBRANCH  13  14
ENDBRANCH  12  13
ENDBRANCH  11  12
ENDBRANCH  10  11
ENDBRANCH   9  10
ENDBRANCH   8   9
ENDBRANCH   7   8
ENDBRANCH   6   7
ENDBRANCH   5   6
ENDBRANCH   3   5
ENDBRANCH   1   3
TORSDOF 17
ENDMDL
MODEL 2
REMARK VINA RESULT:      -5.5      5.132     12.582
REMARK  17 active torsions:
REMARK  status: ('A' for Active; 'I' for Inactive)
REMARK    1  A    between atoms: O_1  and  C_20 
REMARK    2  A    between atoms: C_3  and  C_4 
REMARK    3  A    between atoms: C_3  and  C_5 
REMARK    4  A    between atoms: C_4  and  C_6 
REMARK    5  A    between atoms: C_5  and  C_7 
REMARK    6  A    between atoms: C_6  and  C_8 
REMARK    7  A    between atoms: C_7  and  C_9 
REMARK    8  A    between atoms: C_8  and  C_10 
REMARK    9  A    between atoms: C_9  and  C_11 
REMARK   10  A    between atoms: C_10  and  C_12 
REMARK   11  A    between atoms: C_11  and  C_13 
REMARK   12  A    between atoms: C_12  and  C_14 
REMARK   13  A    between atoms: C_13  and  C_15 
REMARK   14  A    between atoms: C_14  and  C_16 
REMARK   15  A    between atoms: C_15  and  C_17 
REMARK   16  A    between atoms: C_16  and  C_18 
REMARK   17  A    between atoms: C_18  and  C_20 
ROOT
HETATM    1  O   UNL     1      13.480  -1.606  -6.092  1.00  0.00    -0.776 OA
HETATM    2  H   UNL     1      13.804  -2.424  -6.492  1.00  0.00     0.167 HD
ENDROOT
BRANCH   1   3
HETATM    3  C   UNL     1      12.184  -1.453  -5.749  1.00  0.00     0.139 C 
HETATM    4  O   UNL     1      11.770  -1.946  -4.710  1.00  0.00    -0.650 OA
BRANCH   3   5
HETATM    5  C   UNL     1      11.235  -0.717  -6.658  1.00  0.00     0.110 C 
BRANCH   5   6
HETATM    6  C   UNL     1      10.196  -1.631  -7.336  1.00  0.00     0.010 C 
BRANCH   6   7
HETATM    7  C   UNL     1      10.742  -2.574  -8.427  1.00  0.00     0.001 C 
BRANCH   7   8
HETATM    8  C   UNL     1      11.812  -1.953  -9.347  1.00  0.00     0.000 C 
BRANCH   8   9
HETATM    9  C   UNL     1      11.393  -1.788 -10.821  1.00  0.00     0.000 C 
BRANCH   9  10
HETATM   10  C   UNL     1      12.523  -1.361 -11.778  1.00  0.00     0.000 C 
BRANCH  10  11
HETATM   11  C   UNL     1      12.065  -0.974 -13.199  1.00  0.00     0.000 C 
BRANCH  11  12
HETATM   12  C   UNL     1      11.484  -2.131 -14.035  1.00  0.00     0.000 C 
BRANCH  12  13
HETATM   13  C   UNL     1      11.884  -2.126 -15.524  1.00  0.00     0.000 C 
BRANCH  13  14
HETATM   14  C   UNL     1      10.735  -2.426 -16.508  1.00  0.00     0.000 C 
BRANCH  14  15
HETATM   15  C   UNL     1      10.696  -1.528 -17.760  1.00  0.00     0.000 C 
BRANCH  15  16
HETATM   16  C   UNL     1      11.128  -2.215 -19.071  1.00  0.00     0.000 C 
BRANCH  16  17
HETATM   17  C   UNL     1      12.246  -1.494 -19.848  1.00  0.00     0.000 C 
BRANCH  17  18
HETATM   18  C   UNL     1      11.847  -0.988 -21.249  1.00  0.00     0.000 C 
BRANCH  18  19
HETATM   19  C   UNL     1      10.550  -1.600 -21.817  1.00  0.00    -0.000 C 
BRANCH  19  20
HETATM   20  C   UNL     1      10.731  -2.464 -23.079  1.00  0.00    -0.005 C 
HETATM   21  C   UNL     1      11.889  -2.004 -23.963  1.00  0.00     0.005 C 
ENDBRANCH  19  20
ENDBRANCH  18  19
ENDBRANCH  17  18
ENDBRANCH  16  17
ENDBRANCH  15  16
ENDBRANCH  14  15
ENDBRANCH  13  14
ENDBRANCH  12  13
ENDBRANCH  11  12
ENDBRANCH  10  11
ENDBRANCH   9  10
ENDBRANCH   8   9
ENDBRANCH   7   8
ENDBRANCH   6   7
ENDBRANCH   5   6
ENDBRANCH   3   5
ENDBRANCH   1   3
TORSDOF 17
ENDMDL
MODEL 3
REMARK VINA RESULT:      -5.2      5.131     12.379
REMARK  17 active torsions:
REMARK  status: ('A' for Active; 'I' for Inactive)
REMARK    1  A    between atoms: O_1  and  C_20 
REMARK    2  A    between atoms: C_3  and  C_4 
REMARK    3  A    between atoms: C_3  and  C_5 
REMARK    4  A    between atoms: C_4  and  C_6 
REMARK    5  A    between atoms: C_5  and  C_7 
REMARK    6  A    between atoms: C_6  and  C_8 
REMARK    7  A    between atoms: C_7  and  C_9 
REMARK    8  A    between atoms: C_8  and  C_10 
REMARK    9  A    between atoms: C_9  and  C_11 
REMARK   10  A    between atoms: C_10  and  C_12 
REMARK   11  A    between atoms: C_11  and  C_13 
REMARK   12  A    between atoms: C_12  and  C_14 
REMARK   13  A    between atoms: C_13  and  C_15 
REMARK   14  A    between atoms: C_14  and  C_16 
REMARK   15  A    between atoms: C_15  and  C_17 
REMARK   16  A    between atoms: C_16  and  C_18 
REMARK   17  A    between atoms: C_18  and  C_20 
ROOT
HETATM    1  O   UNL     1      13.209  -1.792  -6.346  1.00  0.00    -0.776 OA
HETATM    2  H   UNL     1      13.946  -1.564  -6.929  1.00  0.00     0.167 HD
ENDROOT
BRANCH   1   3
HETATM    3  C   UNL     1      11.927  -1.687  -6.753  1.00  0.00     0.139 C 
HETATM    4  O   UNL     1      11.188  -0.871  -6.223  1.00  0.00    -0.650 OA
BRANCH   3   5
HETATM    5  C   UNL     1      11.389  -2.596  -7.826  1.00  0.00     0.110 C 
BRANCH   5   6
HETATM    6  C   UNL     1      11.160  -1.889  -9.176  1.00  0.00     0.010 C 
BRANCH   6   7
HETATM    7  C   UNL     1      12.421  -1.646 -10.029  1.00  0.00     0.001 C 
BRANCH   7   8
HETATM    8  C   UNL     1      12.213  -1.787 -11.550  1.00  0.00     0.000 C 
BRANCH   8   9
HETATM    9  C   UNL     1      10.797  -2.219 -11.981  1.00  0.00     0.000 C 
BRANCH   9  10
HETATM   10  C   UNL     1      10.553  -2.233 -13.503  1.00  0.00     0.000 C 
BRANCH  10  11
HETATM   11  C   UNL     1      11.770  -1.834 -14.362  1.00  0.00     0.000 C 
BRANCH  11  12
HETATM   12  C   UNL     1      11.427  -1.211 -15.729  1.00  0.00     0.000 C 
BRANCH  12  13
HETATM   13  C   UNL     1      11.810  -2.068 -16.953  1.00  0.00     0.000 C 
BRANCH  13  14
HETATM   14  C   UNL     1      12.131  -1.269 -18.233  1.00  0.00     0.000 C 
BRANCH  14  15
HETATM   15  C   UNL     1      11.602  -1.891 -19.541  1.00  0.00     0.000 C 
BRANCH  15  16
HETATM   16  C   UNL     1      12.570  -1.818 -20.737  1.00  0.00     0.000 C 
BRANCH  16  17
HETATM   17  C   UNL     1      11.906  -1.932 -22.123  1.00  0.00     0.000 C 
BRANCH  17  18
HETATM   18  C   UNL     1      10.425  -1.508 -22.174  1.00  0.00     0.000 C 
BRANCH  18  19
HETATM   19  C   UNL     1      10.113  -0.148 -21.515  1.00  0.00    -0.000 C 
BRANCH  19  20
HETATM   20  C   UNL     1       8.886   0.589 -22.082  1.00  0.00    -0.005 C 
HETATM   21  C   UNL     1       8.645   1.950 -21.429  1.00  0.00     0.005 C 
ENDBRANCH  19  20
ENDBRANCH  18  19
ENDBRANCH  17  18
ENDBRANCH  16  17
ENDBRANCH  15  16
ENDBRANCH  14  15
ENDBRANCH  13  14
ENDBRANCH  12  13
ENDBRANCH  11  12
ENDBRANCH  10  11
ENDBRANCH   9  10
ENDBRANCH   8   9
ENDBRANCH   7   8
ENDBRANCH   6   7
ENDBRANCH   5   6
ENDBRANCH   3   5
ENDBRANCH   1   3
TORSDOF 17
ENDMDL
MODEL 4
REMARK VINA RESULT:      -5.1     21.090     23.840
REMARK  17 active torsions:
REMARK  status: ('A' for Active; 'I' for Inactive)
REMARK    1  A    between atoms: O_1  and  C_20 
REMARK    2  A    between atoms: C_3  and  C_4 
REMARK    3  A    between atoms: C_3  and  C_5 
REMARK    4  A    between atoms: C_4  and  C_6 
REMARK    5  A    between atoms: C_5  and  C_7 
REMARK    6  A    between atoms: C_6  and  C_8 
REMARK    7  A    between atoms: C_7  and  C_9 
REMARK    8  A    between atoms: C_8  and  C_10 
REMARK    9  A    between atoms: C_9  and  C_11 
REMARK   10  A    between atoms: C_10  and  C_12 
REMARK   11  A    between atoms: C_11  and  C_13 
REMARK   12  A    between atoms: C_12  and  C_14 
REMARK   13  A    between atoms: C_13  and  C_15 
REMARK   14  A    between atoms: C_14  and  C_16 
REMARK   15  A    between atoms: C_15  and  C_17 
REMARK   16  A    between atoms: C_16  and  C_18 
REMARK   17  A    between atoms: C_18  and  C_20 
ROOT
HETATM    1  O   UNL     1      28.869  18.760  -8.502  1.00  0.00    -0.776 OA
HETATM    2  H   UNL     1      28.082  19.026  -8.996  1.00  0.00     0.167 HD
ENDROOT
BRANCH   1   3
HETATM    3  C   UNL     1      29.197  17.461  -8.340  1.00  0.00     0.139 C 
HETATM    4  O   UNL     1      29.906  16.908  -9.167  1.00  0.00    -0.650 OA
BRANCH   3   5
HETATM    5  C   UNL     1      28.660  16.677  -7.172  1.00  0.00     0.110 C 
BRANCH   5   6
HETATM    6  C   UNL     1      29.135  15.212  -7.142  1.00  0.00     0.010 C 
BRANCH   6   7
HETATM    7  C   UNL     1      28.789  14.419  -5.865  1.00  0.00     0.001 C 
BRANCH   7   8
HETATM    8  C   UNL     1      27.506  13.570  -5.955  1.00  0.00     0.000 C 
BRANCH   8   9
HETATM    9  C   UNL     1      27.027  13.257  -7.386  1.00  0.00     0.000 C 
BRANCH   9  10
HETATM   10  C   UNL     1      26.052  12.068  -7.503  1.00  0.00     0.000 C 
BRANCH  10  11
HETATM   11  C   UNL     1      24.658  12.420  -8.062  1.00  0.00     0.000 C 
BRANCH  11  12
HETATM   12  C   UNL     1      24.062  11.380  -9.030  1.00  0.00     0.000 C 
BRANCH  12  13
HETATM   13  C   UNL     1      24.664  11.388 -10.450  1.00  0.00     0.000 C 
BRANCH  13  14
HETATM   14  C   UNL     1      24.020  12.393 -11.425  1.00  0.00     0.000 C 
BRANCH  14  15
HETATM   15  C   UNL     1      24.754  12.560 -12.771  1.00  0.00     0.000 C 
BRANCH  15  16
HETATM   16  C   UNL     1      24.360  11.542 -13.859  1.00  0.00     0.000 C 
BRANCH  16  17
HETATM   17  C   UNL     1      24.369  12.091 -15.300  1.00  0.00     0.000 C 
BRANCH  17  18
HETATM   18  C   UNL     1      25.390  11.428 -16.245  1.00  0.00     0.000 C 
BRANCH  18  19
HETATM   19  C   UNL     1      24.855  11.098 -17.654  1.00  0.00    -0.000 C 
BRANCH  19  20
HETATM   20  C   UNL     1      24.198  12.275 -18.398  1.00  0.00    -0.005 C 
HETATM   21  C   UNL     1      24.212  12.111 -19.918  1.00  0.00     0.005 C 
ENDBRANCH  19  20
ENDBRANCH  18  19
ENDBRANCH  17  18
ENDBRANCH  16  17
ENDBRANCH  15  16
ENDBRANCH  14  15
ENDBRANCH  13  14
ENDBRANCH  12  13
ENDBRANCH  11  12
ENDBRANCH  10  11
ENDBRANCH   9  10
ENDBRANCH   8   9
ENDBRANCH   7   8
ENDBRANCH   6   7
ENDBRANCH   5   6
ENDBRANCH   3   5
ENDBRANCH   1   3
TORSDOF 17
ENDMDL
MODEL 5
REMARK VINA RESULT:      -5.0     20.181     22.624
REMARK  17 active torsions:
REMARK  status: ('A' for Active; 'I' for Inactive)
REMARK    1  A    between atoms: O_1  and  C_20 
REMARK    2  A    between atoms: C_3  and  C_4 
REMARK    3  A    between atoms: C_3  and  C_5 
REMARK    4  A    between atoms: C_4  and  C_6 
REMARK    5  A    between atoms: C_5  and  C_7 
REMARK    6  A    between atoms: C_6  and  C_8 
REMARK    7  A    between atoms: C_7  and  C_9 
REMARK    8  A    between atoms: C_8  and  C_10 
REMARK    9  A    between atoms: C_9  and  C_11 
REMARK   10  A    between atoms: C_10  and  C_12 
REMARK   11  A    between atoms: C_11  and  C_13 
REMARK   12  A    between atoms: C_12  and  C_14 
REMARK   13  A    between atoms: C_13  and  C_15 
REMARK   14  A    between atoms: C_14  and  C_16 
REMARK   15  A    between atoms: C_15  and  C_17 
REMARK   16  A    between atoms: C_16  and  C_18 
REMARK   17  A    between atoms: C_18  and  C_20 
ROOT
HETATM    1  O   UNL     1      27.801  13.368  -9.810  1.00  0.00    -0.776 OA
HETATM    2  H   UNL     1      27.754  14.325  -9.679  1.00  0.00     0.167 HD
ENDROOT
BRANCH   1   3
HETATM    3  C   UNL     1      27.607  12.505  -8.792  1.00  0.00     0.139 C 
HETATM    4  O   UNL     1      27.998  11.352  -8.892  1.00  0.00    -0.650 OA
BRANCH   3   5
HETATM    5  C   UNL     1      26.874  12.941  -7.550  1.00  0.00     0.110 C 
BRANCH   5   6
HETATM    6  C   UNL     1      25.706  12.013  -7.166  1.00  0.00     0.010 C 
BRANCH   6   7
HETATM    7  C   UNL     1      24.321  12.416  -7.710  1.00  0.00     0.001 C 
BRANCH   7   8
HETATM    8  C   UNL     1      23.854  11.627  -8.949  1.00  0.00     0.000 C 
BRANCH   8   9
HETATM    9  C   UNL     1      24.326  12.195 -10.303  1.00  0.00     0.000 C 
BRANCH   9  10
HETATM   10  C   UNL     1      25.239  11.260 -11.121  1.00  0.00     0.000 C 
BRANCH  10  11
HETATM   11  C   UNL     1      25.393  11.637 -12.609  1.00  0.00     0.000 C 
BRANCH  11  12
HETATM   12  C   UNL     1      24.134  12.237 -13.264  1.00  0.00     0.000 C 
BRANCH  12  13
HETATM   13  C   UNL     1      23.892  11.811 -14.727  1.00  0.00     0.000 C 
BRANCH  13  14
HETATM   14  C   UNL     1      25.010  12.206 -15.712  1.00  0.00     0.000 C 
BRANCH  14  15
HETATM   15  C   UNL     1      25.322  11.158 -16.800  1.00  0.00     0.000 C 
BRANCH  15  16
HETATM   16  C   UNL     1      26.565  11.460 -17.659  1.00  0.00     0.000 C 
BRANCH  16  17
HETATM   17  C   UNL     1      27.129  12.887 -17.514  1.00  0.00     0.000 C 
BRANCH  17  18
HETATM   18  C   UNL     1      28.320  13.023 -16.545  1.00  0.00     0.000 C 
BRANCH  18  19
HETATM   19  C   UNL     1      28.177  14.138 -15.488  1.00  0.00    -0.000 C 
BRANCH  19  20
HETATM   20  C   UNL     1      28.111  13.652 -14.028  1.00  0.00    -0.005 C 
HETATM   21  C   UNL     1      28.311  14.775 -13.010  1.00  0.00     0.005 C 
ENDBRANCH  19  20
ENDBRANCH  18  19
ENDBRANCH  17  18
ENDBRANCH  16  17
ENDBRANCH  15  16
ENDBRANCH  14  15
ENDBRANCH  13  14
ENDBRANCH  12  13
ENDBRANCH  11  12
ENDBRANCH  10  11
ENDBRANCH   9  10
ENDBRANCH   8   9
ENDBRANCH   7   8
ENDBRANCH   6   7
ENDBRANCH   5   6
ENDBRANCH   3   5
ENDBRANCH   1   3
TORSDOF 17
ENDMDL
MODEL 6
REMARK VINA RESULT:      -5.0      1.809      2.637
REMARK  17 active torsions:
REMARK  status: ('A' for Active; 'I' for Inactive)
REMARK    1  A    between atoms: O_1  and  C_20 
REMARK    2  A    between atoms: C_3  and  C_4 
REMARK    3  A    between atoms: C_3  and  C_5 
REMARK    4  A    between atoms: C_4  and  C_6 
REMARK    5  A    between atoms: C_5  and  C_7 
REMARK    6  A    between atoms: C_6  and  C_8 
REMARK    7  A    between atoms: C_7  and  C_9 
REMARK    8  A    between atoms: C_8  and  C_10 
REMARK    9  A    between atoms: C_9  and  C_11 
REMARK   10  A    between atoms: C_10  and  C_12 
REMARK   11  A    between atoms: C_11  and  C_13 
REMARK   12  A    between atoms: C_12  and  C_14 
REMARK   13  A    between atoms: C_13  and  C_15 
REMARK   14  A    between atoms: C_14  and  C_16 
REMARK   15  A    between atoms: C_15  and  C_17 
REMARK   16  A    between atoms: C_16  and  C_18 
REMARK   17  A    between atoms: C_18  and  C_20 
ROOT
HETATM    1  O   UNL     1      13.520  -1.732 -21.032  1.00  0.00    -0.776 OA
HETATM    2  H   UNL     1      14.077  -1.000 -20.734  1.00  0.00     0.167 HD
ENDROOT
BRANCH   1   3
HETATM    3  C   UNL     1      12.375  -1.518 -21.712  1.00  0.00     0.139 C 
HETATM    4  O   UNL     1      12.380  -1.549 -22.933  1.00  0.00    -0.650 OA
BRANCH   3   5
HETATM    5  C   UNL     1      11.099  -1.198 -20.977  1.00  0.00     0.110 C 
BRANCH   5   6
HETATM    6  C   UNL     1      11.273  -1.107 -19.450  1.00  0.00     0.010 C 
BRANCH   6   7
HETATM    7  C   UNL     1      10.973  -2.398 -18.661  1.00  0.00     0.001 C 
BRANCH   7   8
HETATM    8  C   UNL     1      10.893  -2.222 -17.132  1.00  0.00     0.000 C 
BRANCH   8   9
HETATM    9  C   UNL     1      12.210  -1.797 -16.452  1.00  0.00     0.000 C 
BRANCH   9  10
HETATM   10  C   UNL     1      12.156  -1.719 -14.914  1.00  0.00     0.000 C 
BRANCH  10  11
HETATM   11  C   UNL     1      10.808  -2.131 -14.287  1.00  0.00     0.000 C 
BRANCH  11  12
HETATM   12  C   UNL     1      10.691  -1.885 -12.770  1.00  0.00     0.000 C 
BRANCH  12  13
HETATM   13  C   UNL     1      12.034  -1.749 -12.024  1.00  0.00     0.000 C 
BRANCH  13  14
HETATM   14  C   UNL     1      11.941  -1.106 -10.626  1.00  0.00     0.000 C 
BRANCH  14  15
HETATM   15  C   UNL     1      11.900  -2.103  -9.450  1.00  0.00     0.000 C 
BRANCH  15  16
HETATM   16  C   UNL     1      12.152  -1.484  -8.061  1.00  0.00     0.000 C 
BRANCH  16  17
HETATM   17  C   UNL     1      10.988  -1.633  -7.061  1.00  0.00     0.000 C 
BRANCH  17  18
HETATM   18  C   UNL     1       9.721  -0.828  -7.409  1.00  0.00     0.000 C 
BRANCH  18  19
HETATM   19  C   UNL     1       9.711   0.627  -6.896  1.00  0.00    -0.000 C 
BRANCH  19  20
HETATM   20  C   UNL     1       8.325   1.297  -6.850  1.00  0.00    -0.005 C 
HETATM   21  C   UNL     1       8.383   2.814  -7.024  1.00  0.00     0.005 C 
ENDBRANCH  19  20
ENDBRANCH  18  19
ENDBRANCH  17  18
ENDBRANCH  16  17
ENDBRANCH  15  16
ENDBRANCH  14  15
ENDBRANCH  13  14
ENDBRANCH  12  13
ENDBRANCH  11  12
ENDBRANCH  10  11
ENDBRANCH   9  10
ENDBRANCH   8   9
ENDBRANCH   7   8
ENDBRANCH   6   7
ENDBRANCH   5   6
ENDBRANCH   3   5
ENDBRANCH   1   3
TORSDOF 17
ENDMDL
MODEL 7
REMARK VINA RESULT:      -4.9     19.302     20.246
REMARK  17 active torsions:
REMARK  status: ('A' for Active; 'I' for Inactive)
REMARK    1  A    between atoms: O_1  and  C_20 
REMARK    2  A    between atoms: C_3  and  C_4 
REMARK    3  A    between atoms: C_3  and  C_5 
REMARK    4  A    between atoms: C_4  and  C_6 
REMARK    5  A    between atoms: C_5  and  C_7 
REMARK    6  A    between atoms: C_6  and  C_8 
REMARK    7  A    between atoms: C_7  and  C_9 
REMARK    8  A    between atoms: C_8  and  C_10 
REMARK    9  A    between atoms: C_9  and  C_11 
REMARK   10  A    between atoms: C_10  and  C_12 
REMARK   11  A    between atoms: C_11  and  C_13 
REMARK   12  A    between atoms: C_12  and  C_14 
REMARK   13  A    between atoms: C_13  and  C_15 
REMARK   14  A    between atoms: C_14  and  C_16 
REMARK   15  A    between atoms: C_15  and  C_17 
REMARK   16  A    between atoms: C_16  and  C_18 
REMARK   17  A    between atoms: C_18  and  C_20 
ROOT
HETATM    1  O   UNL     1      24.785  13.105 -17.632  1.00  0.00    -0.776 OA
HETATM    2  H   UNL     1      24.366  13.580 -16.901  1.00  0.00     0.167 HD
ENDROOT
BRANCH   1   3
HETATM    3  C   UNL     1      24.776  11.757 -17.696  1.00  0.00     0.139 C 
HETATM    4  O   UNL     1      24.367  11.201 -18.705  1.00  0.00    -0.650 OA
BRANCH   3   5
HETATM    5  C   UNL     1      25.227  10.933 -16.519  1.00  0.00     0.110 C 
BRANCH   5   6
HETATM    6  C   UNL     1      25.361  11.743 -15.215  1.00  0.00     0.010 C 
BRANCH   6   7
HETATM    7  C   UNL     1      24.117  11.757 -14.302  1.00  0.00     0.001 C 
BRANCH   7   8
HETATM    8  C   UNL     1      24.335  12.398 -12.917  1.00  0.00     0.000 C 
BRANCH   8   9
HETATM    9  C   UNL     1      25.047  11.501 -11.885  1.00  0.00     0.000 C 
BRANCH   9  10
HETATM   10  C   UNL     1      25.184  12.110 -10.475  1.00  0.00     0.000 C 
BRANCH  10  11
HETATM   11  C   UNL     1      24.323  11.436  -9.387  1.00  0.00     0.000 C 
BRANCH  11  12
HETATM   12  C   UNL     1      24.335  12.140  -8.016  1.00  0.00     0.000 C 
BRANCH  12  13
HETATM   13  C   UNL     1      24.944  11.317  -6.863  1.00  0.00     0.000 C 
BRANCH  13  14
HETATM   14  C   UNL     1      25.413  12.143  -5.649  1.00  0.00     0.000 C 
BRANCH  14  15
HETATM   15  C   UNL     1      26.909  12.006  -5.304  1.00  0.00     0.000 C 
BRANCH  15  16
HETATM   16  C   UNL     1      27.635  10.836  -5.998  1.00  0.00     0.000 C 
BRANCH  16  17
HETATM   17  C   UNL     1      28.986  10.443  -5.370  1.00  0.00     0.000 C 
BRANCH  17  18
HETATM   18  C   UNL     1      30.217  10.677  -6.268  1.00  0.00     0.000 C 
BRANCH  18  19
HETATM   19  C   UNL     1      31.214   9.501  -6.328  1.00  0.00    -0.000 C 
BRANCH  19  20
HETATM   20  C   UNL     1      30.575   8.100  -6.330  1.00  0.00    -0.005 C 
HETATM   21  C   UNL     1      31.107   7.194  -5.220  1.00  0.00     0.005 C 
ENDBRANCH  19  20
ENDBRANCH  18  19
ENDBRANCH  17  18
ENDBRANCH  16  17
ENDBRANCH  15  16
ENDBRANCH  14  15
ENDBRANCH  13  14
ENDBRANCH  12  13
ENDBRANCH  11  12
ENDBRANCH  10  11
ENDBRANCH   9  10
ENDBRANCH   8   9
ENDBRANCH   7   8
ENDBRANCH   6   7
ENDBRANCH   5   6
ENDBRANCH   3   5
ENDBRANCH   1   3
TORSDOF 17
ENDMDL
MODEL 8
REMARK VINA RESULT:      -4.8     20.470     22.613
REMARK  17 active torsions:
REMARK  status: ('A' for Active; 'I' for Inactive)
REMARK    1  A    between atoms: O_1  and  C_20 
REMARK    2  A    between atoms: C_3  and  C_4 
REMARK    3  A    between atoms: C_3  and  C_5 
REMARK    4  A    between atoms: C_4  and  C_6 
REMARK    5  A    between atoms: C_5  and  C_7 
REMARK    6  A    between atoms: C_6  and  C_8 
REMARK    7  A    between atoms: C_7  and  C_9 
REMARK    8  A    between atoms: C_8  and  C_10 
REMARK    9  A    between atoms: C_9  and  C_11 
REMARK   10  A    between atoms: C_10  and  C_12 
REMARK   11  A    between atoms: C_11  and  C_13 
REMARK   12  A    between atoms: C_12  and  C_14 
REMARK   13  A    between atoms: C_13  and  C_15 
REMARK   14  A    between atoms: C_14  and  C_16 
REMARK   15  A    between atoms: C_15  and  C_17 
REMARK   16  A    between atoms: C_16  and  C_18 
REMARK   17  A    between atoms: C_18  and  C_20 
ROOT
HETATM    1  O   UNL     1      30.844  13.613 -11.354  1.00  0.00    -0.776 OA
HETATM    2  H   UNL     1      31.448  14.101 -10.778  1.00  0.00     0.167 HD
ENDROOT
BRANCH   1   3
HETATM    3  C   UNL     1      29.530  13.500 -11.066  1.00  0.00     0.139 C 
HETATM    4  O   UNL     1      28.698  13.855 -11.888  1.00  0.00    -0.650 OA
BRANCH   3   5
HETATM    5  C   UNL     1      29.083  12.980  -9.726  1.00  0.00     0.110 C 
BRANCH   5   6
HETATM    6  C   UNL     1      27.932  13.793  -9.102  1.00  0.00     0.010 C 
BRANCH   6   7
HETATM    7  C   UNL     1      28.304  14.653  -7.878  1.00  0.00     0.001 C 
BRANCH   7   8
HETATM    8  C   UNL     1      27.579  14.273  -6.571  1.00  0.00     0.000 C 
BRANCH   8   9
HETATM    9  C   UNL     1      28.298  13.217  -5.707  1.00  0.00     0.000 C 
BRANCH   9  10
HETATM   10  C   UNL     1      27.407  12.060  -5.214  1.00  0.00     0.000 C 
BRANCH  10  11
HETATM   11  C   UNL     1      27.228  10.901  -6.215  1.00  0.00     0.000 C 
BRANCH  11  12
HETATM   12  C   UNL     1      25.807  10.748  -6.790  1.00  0.00     0.000 C 
BRANCH  12  13
HETATM   13  C   UNL     1      24.869  11.947  -6.542  1.00  0.00     0.000 C 
BRANCH  13  14
HETATM   14  C   UNL     1      24.311  12.611  -7.817  1.00  0.00     0.000 C 
BRANCH  14  15
HETATM   15  C   UNL     1      23.907  11.634  -8.939  1.00  0.00     0.000 C 
BRANCH  15  16
HETATM   16  C   UNL     1      24.216  12.118 -10.369  1.00  0.00     0.000 C 
BRANCH  16  17
HETATM   17  C   UNL     1      25.432  11.446 -11.037  1.00  0.00     0.000 C 
BRANCH  17  18
HETATM   18  C   UNL     1      25.257  11.119 -12.533  1.00  0.00     0.000 C 
BRANCH  18  19
HETATM   19  C   UNL     1      24.145  11.913 -13.249  1.00  0.00    -0.000 C 
BRANCH  19  20
HETATM   20  C   UNL     1      24.308  12.040 -14.775  1.00  0.00    -0.005 C 
HETATM   21  C   UNL     1      25.674  11.571 -15.276  1.00  0.00     0.005 C 
ENDBRANCH  19  20
ENDBRANCH  18  19
ENDBRANCH  17  18
ENDBRANCH  16  17
ENDBRANCH  15  16
ENDBRANCH  14  15
ENDBRANCH  13  14
ENDBRANCH  12  13
ENDBRANCH  11  12
ENDBRANCH  10  11
ENDBRANCH   9  10
ENDBRANCH   8   9
ENDBRANCH   7   8
ENDBRANCH   6   7
ENDBRANCH   5   6
ENDBRANCH   3   5
ENDBRANCH   1   3
TORSDOF 17
ENDMDL
MODEL 9
REMARK VINA RESULT:      -4.8     23.049     24.245
REMARK  17 active torsions:
REMARK  status: ('A' for Active; 'I' for Inactive)
REMARK    1  A    between atoms: O_1  and  C_20 
REMARK    2  A    between atoms: C_3  and  C_4 
REMARK    3  A    between atoms: C_3  and  C_5 
REMARK    4  A    between atoms: C_4  and  C_6 
REMARK    5  A    between atoms: C_5  and  C_7 
REMARK    6  A    between atoms: C_6  and  C_8 
REMARK    7  A    between atoms: C_7  and  C_9 
REMARK    8  A    between atoms: C_8  and  C_10 
REMARK    9  A    between atoms: C_9  and  C_11 
REMARK   10  A    between atoms: C_10  and  C_12 
REMARK   11  A    between atoms: C_11  and  C_13 
REMARK   12  A    between atoms: C_12  and  C_14 
REMARK   13  A    between atoms: C_13  and  C_15 
REMARK   14  A    between atoms: C_14  and  C_16 
REMARK   15  A    between atoms: C_15  and  C_17 
REMARK   16  A    between atoms: C_16  and  C_18 
REMARK   17  A    between atoms: C_18  and  C_20 
ROOT
HETATM    1  O   UNL     1      34.120   5.383 -16.385  1.00  0.00    -0.776 OA
HETATM    2  H   UNL     1      34.868   4.899 -16.762  1.00  0.00     0.167 HD
ENDROOT
BRANCH   1   3
HETATM    3  C   UNL     1      34.288   6.281 -15.392  1.00  0.00     0.139 C 
HETATM    4  O   UNL     1      35.407   6.487 -14.945  1.00  0.00    -0.650 OA
BRANCH   3   5
HETATM    5  C   UNL     1      33.103   6.999 -14.803  1.00  0.00     0.110 C 
BRANCH   5   6
HETATM    6  C   UNL     1      32.565   6.347 -13.515  1.00  0.00     0.010 C 
BRANCH   6   7
HETATM    7  C   UNL     1      31.034   6.178 -13.436  1.00  0.00     0.001 C 
BRANCH   7   8
HETATM    8  C   UNL     1      30.462   6.105 -12.006  1.00  0.00     0.000 C 
BRANCH   8   9
HETATM    9  C   UNL     1      31.511   5.958 -10.887  1.00  0.00     0.000 C 
BRANCH   9  10
HETATM   10  C   UNL     1      31.020   6.341  -9.477  1.00  0.00     0.000 C 
BRANCH  10  11
HETATM   11  C   UNL     1      31.954   5.919  -8.324  1.00  0.00     0.000 C 
BRANCH  11  12
HETATM   12  C   UNL     1      32.501   7.079  -7.469  1.00  0.00     0.000 C 
BRANCH  12  13
HETATM   13  C   UNL     1      34.037   7.214  -7.456  1.00  0.00     0.000 C 
BRANCH  13  14
HETATM   14  C   UNL     1      34.585   8.485  -8.133  1.00  0.00     0.000 C 
BRANCH  14  15
HETATM   15  C   UNL     1      35.988   8.341  -8.755  1.00  0.00     0.000 C 
BRANCH  15  16
HETATM   16  C   UNL     1      36.028   7.627 -10.120  1.00  0.00     0.000 C 
BRANCH  16  17
HETATM   17  C   UNL     1      34.746   7.764 -10.966  1.00  0.00     0.000 C 
BRANCH  17  18
HETATM   18  C   UNL     1      34.762   8.915 -11.992  1.00  0.00     0.000 C 
BRANCH  18  19
HETATM   19  C   UNL     1      33.419   9.656 -12.161  1.00  0.00    -0.000 C 
BRANCH  19  20
HETATM   20  C   UNL     1      32.441   9.517 -10.980  1.00  0.00    -0.005 C 
HETATM   21  C   UNL     1      30.976   9.671 -11.390  1.00  0.00     0.005 C 
ENDBRANCH  19  20
ENDBRANCH  18  19
ENDBRANCH  17  18
ENDBRANCH  16  17
ENDBRANCH  15  16
ENDBRANCH  14  15
ENDBRANCH  13  14
ENDBRANCH  12  13
ENDBRANCH  11  12
ENDBRANCH  10  11
ENDBRANCH   9  10
ENDBRANCH   8   9
ENDBRANCH   7   8
ENDBRANCH   6   7
ENDBRANCH   5   6
ENDBRANCH   3   5
ENDBRANCH   1   3
TORSDOF 17
ENDMDL
MODEL 10
REMARK VINA RESULT:      -4.8     20.248     23.079
REMARK  17 active torsions:
REMARK  status: ('A' for Active; 'I' for Inactive)
REMARK    1  A    between atoms: O_1  and  C_20 
REMARK    2  A    between atoms: C_3  and  C_4 
REMARK    3  A    between atoms: C_3  and  C_5 
REMARK    4  A    between atoms: C_4  and  C_6 
REMARK    5  A    between atoms: C_5  and  C_7 
REMARK    6  A    between atoms: C_6  and  C_8 
REMARK    7  A    between atoms: C_7  and  C_9 
REMARK    8  A    between atoms: C_8  and  C_10 
REMARK    9  A    between atoms: C_9  and  C_11 
REMARK   10  A    between atoms: C_10  and  C_12 
REMARK   11  A    between atoms: C_11  and  C_13 
REMARK   12  A    between atoms: C_12  and  C_14 
REMARK   13  A    between atoms: C_13  and  C_15 
REMARK   14  A    between atoms: C_14  and  C_16 
REMARK   15  A    between atoms: C_15  and  C_17 
REMARK   16  A    between atoms: C_16  and  C_18 
REMARK   17  A    between atoms: C_18  and  C_20 
ROOT
HETATM    1  O   UNL     1      29.498  11.368 -11.523  1.00  0.00    -0.776 OA
HETATM    2  H   UNL     1      29.483  10.981 -12.409  1.00  0.00     0.167 HD
ENDROOT
BRANCH   1   3
HETATM    3  C   UNL     1      28.398  11.929 -10.979  1.00  0.00     0.139 C 
HETATM    4  O   UNL     1      28.408  13.114 -10.679  1.00  0.00    -0.650 OA
BRANCH   3   5
HETATM    5  C   UNL     1      27.174  11.098 -10.700  1.00  0.00     0.110 C 
BRANCH   5   6
HETATM    6  C   UNL     1      26.149  11.105 -11.851  1.00  0.00     0.010 C 
BRANCH   6   7
HETATM    7  C   UNL     1      24.904  11.989 -11.636  1.00  0.00     0.001 C 
BRANCH   7   8
HETATM    8  C   UNL     1      24.115  12.322 -12.918  1.00  0.00     0.000 C 
BRANCH   8   9
HETATM    9  C   UNL     1      24.425  11.421 -14.130  1.00  0.00     0.000 C 
BRANCH   9  10
HETATM   10  C   UNL     1      24.526  12.157 -15.481  1.00  0.00     0.000 C 
BRANCH  10  11
HETATM   11  C   UNL     1      25.029  11.296 -16.658  1.00  0.00     0.000 C 
BRANCH  11  12
HETATM   12  C   UNL     1      25.156  12.038 -18.002  1.00  0.00     0.000 C 
BRANCH  12  13
HETATM   13  C   UNL     1      24.007  11.786 -18.999  1.00  0.00     0.000 C 
BRANCH  13  14
HETATM   14  C   UNL     1      24.342  12.096 -20.472  1.00  0.00     0.000 C 
BRANCH  14  15
HETATM   15  C   UNL     1      25.374  11.151 -21.120  1.00  0.00     0.000 C 
BRANCH  15  16
HETATM   16  C   UNL     1      26.648  11.838 -21.647  1.00  0.00     0.000 C 
BRANCH  16  17
HETATM   17  C   UNL     1      27.211  12.952 -20.743  1.00  0.00     0.000 C 
BRANCH  17  18
HETATM   18  C   UNL     1      28.321  12.506 -19.770  1.00  0.00     0.000 C 
BRANCH  18  19
HETATM   19  C   UNL     1      28.972  13.644 -18.957  1.00  0.00    -0.000 C 
BRANCH  19  20
HETATM   20  C   UNL     1      28.700  13.605 -17.441  1.00  0.00    -0.005 C 
HETATM   21  C   UNL     1      28.029  14.875 -16.917  1.00  0.00     0.005 C 
ENDBRANCH  19  20
ENDBRANCH  18  19
ENDBRANCH  17  18
ENDBRANCH  16  17
ENDBRANCH  15  16
ENDBRANCH  14  15
ENDBRANCH  13  14
ENDBRANCH  12  13
ENDBRANCH  11  12
ENDBRANCH  10  11
ENDBRANCH   9  10
ENDBRANCH   8   9
ENDBRANCH   7   8
ENDBRANCH   6   7
ENDBRANCH   5   6
ENDBRANCH   3   5
ENDBRANCH   1   3
TORSDOF 17
ENDMDL
MODEL 11
REMARK VINA RESULT:      -4.8     19.427     20.231
REMARK  17 active torsions:
REMARK  status: ('A' for Active; 'I' for Inactive)
REMARK    1  A    between atoms: O_1  and  C_20 
REMARK    2  A    between atoms: C_3  and  C_4 
REMARK    3  A    between atoms: C_3  and  C_5 
REMARK    4  A    between atoms: C_4  and  C_6 
REMARK    5  A    between atoms: C_5  and  C_7 
REMARK    6  A    between atoms: C_6  and  C_8 
REMARK    7  A    between atoms: C_7  and  C_9 
REMARK    8  A    between atoms: C_8  and  C_10 
REMARK    9  A    between atoms: C_9  and  C_11 
REMARK   10  A    between atoms: C_10  and  C_12 
REMARK   11  A    between atoms: C_11  and  C_13 
REMARK   12  A    between atoms: C_12  and  C_14 
REMARK   13  A    between atoms: C_13  and  C_15 
REMARK   14  A    between atoms: C_14  and  C_16 
REMARK   15  A    between atoms: C_15  and  C_17 
REMARK   16  A    between atoms: C_16  and  C_18 
REMARK   17  A    between atoms: C_18  and  C_20 
ROOT
HETATM    1  O   UNL     1      23.770  12.280 -14.997  1.00  0.00    -0.776 OA
HETATM    2  H   UNL     1      24.112  12.847 -14.293  1.00  0.00     0.167 HD
ENDROOT
BRANCH   1   3
HETATM    3  C   UNL     1      24.392  12.184 -16.191  1.00  0.00     0.139 C 
HETATM    4  O   UNL     1      24.069  12.929 -17.104  1.00  0.00    -0.650 OA
BRANCH   3   5
HETATM    5  C   UNL     1      25.451  11.138 -16.418  1.00  0.00     0.110 C 
BRANCH   5   6
HETATM    6  C   UNL     1      26.574  11.594 -17.369  1.00  0.00     0.010 C 
BRANCH   6   7
HETATM    7  C   UNL     1      27.906  11.985 -16.697  1.00  0.00     0.001 C 
BRANCH   7   8
HETATM    8  C   UNL     1      27.935  13.399 -16.084  1.00  0.00     0.000 C 
BRANCH   8   9
HETATM    9  C   UNL     1      28.189  13.449 -14.564  1.00  0.00     0.000 C 
BRANCH   9  10
HETATM   10  C   UNL     1      26.996  13.018 -13.688  1.00  0.00     0.000 C 
BRANCH  10  11
HETATM   11  C   UNL     1      27.112  11.606 -13.077  1.00  0.00     0.000 C 
BRANCH  11  12
HETATM   12  C   UNL     1      26.877  11.532 -11.556  1.00  0.00     0.000 C 
BRANCH  12  13
HETATM   13  C   UNL     1      25.462  11.087 -11.134  1.00  0.00     0.000 C 
BRANCH  13  14
HETATM   14  C   UNL     1      24.474  12.237 -10.853  1.00  0.00     0.000 C 
BRANCH  14  15
HETATM   15  C   UNL     1      23.595  12.051  -9.599  1.00  0.00     0.000 C 
BRANCH  15  16
HETATM   16  C   UNL     1      24.304  11.399  -8.396  1.00  0.00     0.000 C 
BRANCH  16  17
HETATM   17  C   UNL     1      25.350  12.287  -7.693  1.00  0.00     0.000 C 
BRANCH  17  18
HETATM   18  C   UNL     1      26.705  11.607  -7.417  1.00  0.00     0.000 C 
BRANCH  18  19
HETATM   19  C   UNL     1      26.894  11.091  -5.976  1.00  0.00    -0.000 C 
BRANCH  19  20
HETATM   20  C   UNL     1      25.800  11.516  -4.979  1.00  0.00    -0.005 C 
HETATM   21  C   UNL     1      26.349  12.255  -3.759  1.00  0.00     0.005 C 
ENDBRANCH  19  20
ENDBRANCH  18  19
ENDBRANCH  17  18
ENDBRANCH  16  17
ENDBRANCH  15  16
ENDBRANCH  14  15
ENDBRANCH  13  14
ENDBRANCH  12  13
ENDBRANCH  11  12
ENDBRANCH  10  11
ENDBRANCH   9  10
ENDBRANCH   8   9
ENDBRANCH   7   8
ENDBRANCH   6   7
ENDBRANCH   5   6
ENDBRANCH   3   5
ENDBRANCH   1   3
TORSDOF 17
ENDMDL
MODEL 12
REMARK VINA RESULT:      -4.8     21.191     22.123
REMARK  17 active torsions:
REMARK  status: ('A' for Active; 'I' for Inactive)
REMARK    1  A    between atoms: O_1  and  C_20 
REMARK    2  A    between atoms: C_3  and  C_4 
REMARK    3  A    between atoms: C_3  and  C_5 
REMARK    4  A    between atoms: C_4  and  C_6 
REMARK    5  A    between atoms: C_5  and  C_7 
REMARK    6  A    between atoms: C_6  and  C_8 
REMARK    7  A    between atoms: C_7  and  C_9 
REMARK    8  A    between atoms: C_8  and  C_10 
REMARK    9  A    between atoms: C_9  and  C_11 
REMARK   10  A    between atoms: C_10  and  C_12 
REMARK   11  A    between atoms: C_11  and  C_13 
REMARK   12  A    between atoms: C_12  and  C_14 
REMARK   13  A    between atoms: C_13  and  C_15 
REMARK   14  A    between atoms: C_14  and  C_16 
REMARK   15  A    between atoms: C_15  and  C_17 
REMARK   16  A    between atoms: C_16  and  C_18 
REMARK   17  A    between atoms: C_18  and  C_20 
ROOT
HETATM    1  O   UNL     1      27.949  12.240 -18.118  1.00  0.00    -0.776 OA
HETATM    2  H   UNL     1      28.804  12.513 -17.760  1.00  0.00     0.167 HD
ENDROOT
BRANCH   1   3
HETATM    3  C   UNL     1      26.839  12.987 -17.946  1.00  0.00     0.139 C 
HETATM    4  O   UNL     1      26.903  14.029 -17.309  1.00  0.00    -0.650 OA
BRANCH   3   5
HETATM    5  C   UNL     1      25.515  12.528 -18.497  1.00  0.00     0.110 C 
BRANCH   5   6
HETATM    6  C   UNL     1      24.864  11.399 -17.676  1.00  0.00     0.010 C 
BRANCH   6   7
HETATM    7  C   UNL     1      25.215  11.371 -16.174  1.00  0.00     0.001 C 
BRANCH   7   8
HETATM    8  C   UNL     1      24.270  12.187 -15.270  1.00  0.00     0.000 C 
BRANCH   8   9
HETATM    9  C   UNL     1      24.008  11.579 -13.878  1.00  0.00     0.000 C 
BRANCH   9  10
HETATM   10  C   UNL     1      24.757  12.261 -12.716  1.00  0.00     0.000 C 
BRANCH  10  11
HETATM   11  C   UNL     1      25.150  11.326 -11.554  1.00  0.00     0.000 C 
BRANCH  11  12
HETATM   12  C   UNL     1      24.895  11.894 -10.144  1.00  0.00     0.000 C 
BRANCH  12  13
HETATM   13  C   UNL     1      26.162  12.131  -9.297  1.00  0.00     0.000 C 
BRANCH  13  14
HETATM   14  C   UNL     1      27.455  12.349 -10.106  1.00  0.00     0.000 C 
BRANCH  14  15
HETATM   15  C   UNL     1      27.739  13.812 -10.503  1.00  0.00     0.000 C 
BRANCH  15  16
HETATM   16  C   UNL     1      27.997  14.043 -12.005  1.00  0.00     0.000 C 
BRANCH  16  17
HETATM   17  C   UNL     1      28.374  15.488 -12.387  1.00  0.00     0.000 C 
BRANCH  17  18
HETATM   18  C   UNL     1      29.602  16.060 -11.650  1.00  0.00     0.000 C 
BRANCH  18  19
HETATM   19  C   UNL     1      29.301  17.236 -10.698  1.00  0.00    -0.000 C 
BRANCH  19  20
HETATM   20  C   UNL     1      29.640  16.983  -9.217  1.00  0.00    -0.005 C 
HETATM   21  C   UNL     1      30.566  15.785  -9.007  1.00  0.00     0.005 C 
ENDBRANCH  19  20
ENDBRANCH  18  19
ENDBRANCH  17  18
ENDBRANCH  16  17
ENDBRANCH  15  16
ENDBRANCH  14  15
ENDBRANCH  13  14
ENDBRANCH  12  13
ENDBRANCH  11  12
ENDBRANCH  10  11
ENDBRANCH   9  10
ENDBRANCH   8   9
ENDBRANCH   7   8
ENDBRANCH   6   7
ENDBRANCH   5   6
ENDBRANCH   3   5
ENDBRANCH   1   3
TORSDOF 17
ENDMDL
MODEL 13
REMARK VINA RESULT:      -4.7     19.902     20.929
REMARK  17 active torsions:
REMARK  status: ('A' for Active; 'I' for Inactive)
REMARK    1  A    between atoms: O_1  and  C_20 
REMARK    2  A    between atoms: C_3  and  C_4 
REMARK    3  A    between atoms: C_3  and  C_5 
REMARK    4  A    between atoms: C_4  and  C_6 
REMARK    5  A    between atoms: C_5  and  C_7 
REMARK    6  A    between atoms: C_6  and  C_8 
REMARK    7  A    between atoms: C_7  and  C_9 
REMARK    8  A    between atoms: C_8  and  C_10 
REMARK    9  A    between atoms: C_9  and  C_11 
REMARK   10  A    between atoms: C_10  and  C_12 
REMARK   11  A    between atoms: C_11  and  C_13 
REMARK   12  A    between atoms: C_12  and  C_14 
REMARK   13  A    between atoms: C_13  and  C_15 
REMARK   14  A    between atoms: C_14  and  C_16 
REMARK   15  A    between atoms: C_15  and  C_17 
REMARK   16  A    between atoms: C_16  and  C_18 
REMARK   17  A    between atoms: C_18  and  C_20 
ROOT
HETATM    1  O   UNL     1      26.320  13.236 -17.320  1.00  0.00    -0.776 OA
HETATM    2  H   UNL     1      26.638  13.673 -16.518  1.00  0.00     0.167 HD
ENDROOT
BRANCH   1   3
HETATM    3  C   UNL     1      25.344  12.306 -17.279  1.00  0.00     0.139 C 
HETATM    4  O   UNL     1      25.387  11.349 -18.038  1.00  0.00    -0.650 OA
BRANCH   3   5
HETATM    5  C   UNL     1      24.180  12.461 -16.336  1.00  0.00     0.110 C 
BRANCH   5   6
HETATM    6  C   UNL     1      24.489  12.006 -14.896  1.00  0.00     0.010 C 
BRANCH   6   7
HETATM    7  C   UNL     1      25.898  11.425 -14.663  1.00  0.00     0.001 C 
BRANCH   7   8
HETATM    8  C   UNL     1      26.531  11.779 -13.303  1.00  0.00     0.000 C 
BRANCH   8   9
HETATM    9  C   UNL     1      25.573  12.431 -12.285  1.00  0.00     0.000 C 
BRANCH   9  10
HETATM   10  C   UNL     1      25.223  11.556 -11.065  1.00  0.00     0.000 C 
BRANCH  10  11
HETATM   11  C   UNL     1      24.361  12.249  -9.991  1.00  0.00     0.000 C 
BRANCH  11  12
HETATM   12  C   UNL     1      23.934  11.349  -8.815  1.00  0.00     0.000 C 
BRANCH  12  13
HETATM   13  C   UNL     1      25.054  11.012  -7.810  1.00  0.00     0.000 C 
BRANCH  13  14
HETATM   14  C   UNL     1      25.634  12.222  -7.051  1.00  0.00     0.000 C 
BRANCH  14  15
HETATM   15  C   UNL     1      27.167  12.369  -7.128  1.00  0.00     0.000 C 
BRANCH  15  16
HETATM   16  C   UNL     1      27.690  13.815  -7.033  1.00  0.00     0.000 C 
BRANCH  16  17
HETATM   17  C   UNL     1      28.406  14.334  -8.295  1.00  0.00     0.000 C 
BRANCH  17  18
HETATM   18  C   UNL     1      27.890  13.751  -9.626  1.00  0.00     0.000 C 
BRANCH  18  19
HETATM   19  C   UNL     1      28.909  12.889 -10.399  1.00  0.00    -0.000 C 
BRANCH  19  20
HETATM   20  C   UNL     1      28.909  11.392 -10.037  1.00  0.00    -0.005 C 
HETATM   21  C   UNL     1      30.035  11.004  -9.079  1.00  0.00     0.005 C 
ENDBRANCH  19  20
ENDBRANCH  18  19
ENDBRANCH  17  18
ENDBRANCH  16  17
ENDBRANCH  15  16
ENDBRANCH  14  15
ENDBRANCH  13  14
ENDBRANCH  12  13
ENDBRANCH  11  12
ENDBRANCH  10  11
ENDBRANCH   9  10
ENDBRANCH   8   9
ENDBRANCH   7   8
ENDBRANCH   6   7
ENDBRANCH   5   6
ENDBRANCH   3   5
ENDBRANCH   1   3
TORSDOF 17
ENDMDL
MODEL 14
REMARK VINA RESULT:      -4.7     20.266     21.387
REMARK  17 active torsions:
REMARK  status: ('A' for Active; 'I' for Inactive)
REMARK    1  A    between atoms: O_1  and  C_20 
REMARK    2  A    between atoms: C_3  and  C_4 
REMARK    3  A    between atoms: C_3  and  C_5 
REMARK    4  A    between atoms: C_4  and  C_6 
REMARK    5  A    between atoms: C_5  and  C_7 
REMARK    6  A    between atoms: C_6  and  C_8 
REMARK    7  A    between atoms: C_7  and  C_9 
REMARK    8  A    between atoms: C_8  and  C_10 
REMARK    9  A    between atoms: C_9  and  C_11 
REMARK   10  A    between atoms: C_10  and  C_12 
REMARK   11  A    between atoms: C_11  and  C_13 
REMARK   12  A    between atoms: C_12  and  C_14 
REMARK   13  A    between atoms: C_13  and  C_15 
REMARK   14  A    between atoms: C_14  and  C_16 
REMARK   15  A    between atoms: C_15  and  C_17 
REMARK   16  A    between atoms: C_16  and  C_18 
REMARK   17  A    between atoms: C_18  and  C_20 
ROOT
HETATM    1  O   UNL     1      27.435  14.079 -18.065  1.00  0.00    -0.776 OA
HETATM    2  H   UNL     1      27.175  13.565 -18.842  1.00  0.00     0.167 HD
ENDROOT
BRANCH   1   3
HETATM    3  C   UNL     1      27.339  13.572 -16.819  1.00  0.00     0.139 C 
HETATM    4  O   UNL     1      27.866  14.157 -15.884  1.00  0.00    -0.650 OA
BRANCH   3   5
HETATM    5  C   UNL     1      26.624  12.268 -16.577  1.00  0.00     0.110 C 
BRANCH   5   6
HETATM    6  C   UNL     1      27.291  11.390 -15.501  1.00  0.00     0.010 C 
BRANCH   6   7
HETATM    7  C   UNL     1      26.582  11.351 -14.132  1.00  0.00     0.001 C 
BRANCH   7   8
HETATM    8  C   UNL     1      25.102  11.783 -14.153  1.00  0.00     0.000 C 
BRANCH   8   9
HETATM    9  C   UNL     1      24.611  12.501 -12.880  1.00  0.00     0.000 C 
BRANCH   9  10
HETATM   10  C   UNL     1      24.789  11.705 -11.572  1.00  0.00     0.000 C 
BRANCH  10  11
HETATM   11  C   UNL     1      23.971  12.228 -10.374  1.00  0.00     0.000 C 
BRANCH  11  12
HETATM   12  C   UNL     1      24.198  11.475  -9.049  1.00  0.00     0.000 C 
BRANCH  12  13
HETATM   13  C   UNL     1      24.272  12.367  -7.793  1.00  0.00     0.000 C 
BRANCH  13  14
HETATM   14  C   UNL     1      25.217  11.858  -6.686  1.00  0.00     0.000 C 
BRANCH  14  15
HETATM   15  C   UNL     1      26.716  11.881  -7.046  1.00  0.00     0.000 C 
BRANCH  15  16
HETATM   16  C   UNL     1      27.395  13.259  -6.928  1.00  0.00     0.000 C 
BRANCH  16  17
HETATM   17  C   UNL     1      28.034  13.786  -8.228  1.00  0.00     0.000 C 
BRANCH  17  18
HETATM   18  C   UNL     1      27.385  13.273  -9.529  1.00  0.00     0.000 C 
BRANCH  18  19
HETATM   19  C   UNL     1      28.328  12.484 -10.461  1.00  0.00    -0.000 C 
BRANCH  19  20
HETATM   20  C   UNL     1      28.847  13.266 -11.682  1.00  0.00    -0.005 C 
HETATM   21  C   UNL     1      27.834  14.271 -12.229  1.00  0.00     0.005 C 
ENDBRANCH  19  20
ENDBRANCH  18  19
ENDBRANCH  17  18
ENDBRANCH  16  17
ENDBRANCH  15  16
ENDBRANCH  14  15
ENDBRANCH  13  14
ENDBRANCH  12  13
ENDBRANCH  11  12
ENDBRANCH  10  11
ENDBRANCH   9  10
ENDBRANCH   8   9
ENDBRANCH   7   8
ENDBRANCH   6   7
ENDBRANCH   5   6
ENDBRANCH   3   5
ENDBRANCH   1   3
TORSDOF 17
ENDMDL
MODEL 15
REMARK VINA RESULT:      -4.7     22.149     23.817
REMARK  17 active torsions:
REMARK  status: ('A' for Active; 'I' for Inactive)
REMARK    1  A    between atoms: O_1  and  C_20 
REMARK    2  A    between atoms: C_3  and  C_4 
REMARK    3  A    between atoms: C_3  and  C_5 
REMARK    4  A    between atoms: C_4  and  C_6 
REMARK    5  A    between atoms: C_5  and  C_7 
REMARK    6  A    between atoms: C_6  and  C_8 
REMARK    7  A    between atoms: C_7  and  C_9 
REMARK    8  A    between atoms: C_8  and  C_10 
REMARK    9  A    between atoms: C_9  and  C_11 
REMARK   10  A    between atoms: C_10  and  C_12 
REMARK   11  A    between atoms: C_11  and  C_13 
REMARK   12  A    between atoms: C_12  and  C_14 
REMARK   13  A    between atoms: C_13  and  C_15 
REMARK   14  A    between atoms: C_14  and  C_16 
REMARK   15  A    between atoms: C_15  and  C_17 
REMARK   16  A    between atoms: C_16  and  C_18 
REMARK   17  A    between atoms: C_18  and  C_20 
ROOT
HETATM    1  O   UNL     1      27.360  10.752 -11.490  1.00  0.00    -0.776 OA
HETATM    2  H   UNL     1      28.173  10.963 -11.969  1.00  0.00     0.167 HD
ENDROOT
BRANCH   1   3
HETATM    3  C   UNL     1      26.476  11.711 -11.143  1.00  0.00     0.139 C 
HETATM    4  O   UNL     1      26.838  12.644 -10.441  1.00  0.00    -0.650 OA
BRANCH   3   5
HETATM    5  C   UNL     1      25.038  11.618 -11.579  1.00  0.00     0.110 C 
BRANCH   5   6
HETATM    6  C   UNL     1      24.865  11.191 -13.049  1.00  0.00     0.010 C 
BRANCH   6   7
HETATM    7  C   UNL     1      23.959  12.095 -13.909  1.00  0.00     0.001 C 
BRANCH   7   8
HETATM    8  C   UNL     1      24.349  12.178 -15.398  1.00  0.00     0.000 C 
BRANCH   8   9
HETATM    9  C   UNL     1      25.364  11.118 -15.870  1.00  0.00     0.000 C 
BRANCH   9  10
HETATM   10  C   UNL     1      26.706  11.679 -16.381  1.00  0.00     0.000 C 
BRANCH  10  11
HETATM   11  C   UNL     1      27.128  13.027 -15.760  1.00  0.00     0.000 C 
BRANCH  11  12
HETATM   12  C   UNL     1      27.796  12.926 -14.375  1.00  0.00     0.000 C 
BRANCH  12  13
HETATM   13  C   UNL     1      28.920  13.951 -14.115  1.00  0.00     0.000 C 
BRANCH  13  14
HETATM   14  C   UNL     1      29.084  14.377 -12.643  1.00  0.00     0.000 C 
BRANCH  14  15
HETATM   15  C   UNL     1      28.130  15.494 -12.176  1.00  0.00     0.000 C 
BRANCH  15  16
HETATM   16  C   UNL     1      28.790  16.870 -11.961  1.00  0.00     0.000 C 
BRANCH  16  17
HETATM   17  C   UNL     1      30.251  16.975 -12.442  1.00  0.00     0.000 C 
BRANCH  17  18
HETATM   18  C   UNL     1      30.469  17.869 -13.679  1.00  0.00     0.000 C 
BRANCH  18  19
HETATM   19  C   UNL     1      30.278  17.161 -15.036  1.00  0.00    -0.000 C 
BRANCH  19  20
HETATM   20  C   UNL     1      28.948  17.462 -15.752  1.00  0.00    -0.005 C 
HETATM   21  C   UNL     1      28.641  16.489 -16.889  1.00  0.00     0.005 C 
ENDBRANCH  19  20
ENDBRANCH  18  19
ENDBRANCH  17  18
ENDBRANCH  16  17
ENDBRANCH  15  16
ENDBRANCH  14  15
ENDBRANCH  13  14
ENDBRANCH  12  13
ENDBRANCH  11  12
ENDBRANCH  10  11
ENDBRANCH   9  10
ENDBRANCH   8   9
ENDBRANCH   7   8
ENDBRANCH   6   7
ENDBRANCH   5   6
ENDBRANCH   3   5
ENDBRANCH   1   3
TORSDOF 17
ENDMDL
MODEL 16
REMARK VINA RESULT:      -4.7     20.451     22.105
REMARK  17 active torsions:
REMARK  status: ('A' for Active; 'I' for Inactive)
REMARK    1  A    between atoms: O_1  and  C_20 
REMARK    2  A    between atoms: C_3  and  C_4 
REMARK    3  A    between atoms: C_3  and  C_5 
REMARK    4  A    between atoms: C_4  and  C_6 
REMARK    5  A    between atoms: C_5  and  C_7 
REMARK    6  A    between atoms: C_6  and  C_8 
REMARK    7  A    between atoms: C_7  and  C_9 
REMARK    8  A    between atoms: C_8  and  C_10 
REMARK    9  A    between atoms: C_9  and  C_11 
REMARK   10  A    between atoms: C_10  and  C_12 
REMARK   11  A    between atoms: C_11  and  C_13 
REMARK   12  A    between atoms: C_12  and  C_14 
REMARK   13  A    between atoms: C_13  and  C_15 
REMARK   14  A    between atoms: C_14  and  C_16 
REMARK   15  A    between atoms: C_15  and  C_17 
REMARK   16  A    between atoms: C_16  and  C_18 
REMARK   17  A    between atoms: C_18  and  C_20 
ROOT
HETATM    1  O   UNL     1      23.264  11.827 -19.140  1.00  0.00    -0.776 OA
HETATM    2  H   UNL     1      22.734  12.514 -18.714  1.00  0.00     0.167 HD
ENDROOT
BRANCH   1   3
HETATM    3  C   UNL     1      24.556  12.032 -19.468  1.00  0.00     0.139 C 
HETATM    4  O   UNL     1      24.846  12.366 -20.608  1.00  0.00    -0.650 OA
BRANCH   3   5
HETATM    5  C   UNL     1      25.647  11.814 -18.453  1.00  0.00     0.110 C 
BRANCH   5   6
HETATM    6  C   UNL     1      25.216  10.932 -17.266  1.00  0.00     0.010 C 
BRANCH   6   7
HETATM    7  C   UNL     1      25.851  11.281 -15.904  1.00  0.00     0.001 C 
BRANCH   7   8
HETATM    8  C   UNL     1      24.990  10.927 -14.676  1.00  0.00     0.000 C 
BRANCH   8   9
HETATM    9  C   UNL     1      24.113  12.075 -14.138  1.00  0.00     0.000 C 
BRANCH   9  10
HETATM   10  C   UNL     1      24.669  12.793 -12.893  1.00  0.00     0.000 C 
BRANCH  10  11
HETATM   11  C   UNL     1      24.444  12.053 -11.558  1.00  0.00     0.000 C 
BRANCH  11  12
HETATM   12  C   UNL     1      25.701  11.393 -10.959  1.00  0.00     0.000 C 
BRANCH  12  13
HETATM   13  C   UNL     1      27.023  11.732 -11.677  1.00  0.00     0.000 C 
BRANCH  13  14
HETATM   14  C   UNL     1      27.748  12.986 -11.150  1.00  0.00     0.000 C 
BRANCH  14  15
HETATM   15  C   UNL     1      27.930  14.118 -12.183  1.00  0.00     0.000 C 
BRANCH  15  16
HETATM   16  C   UNL     1      28.647  13.706 -13.483  1.00  0.00     0.000 C 
BRANCH  16  17
HETATM   17  C   UNL     1      27.830  13.917 -14.774  1.00  0.00     0.000 C 
BRANCH  17  18
HETATM   18  C   UNL     1      28.667  14.058 -16.060  1.00  0.00     0.000 C 
BRANCH  18  19
HETATM   19  C   UNL     1      28.113  15.063 -17.092  1.00  0.00    -0.000 C 
BRANCH  19  20
HETATM   20  C   UNL     1      29.032  16.259 -17.401  1.00  0.00    -0.005 C 
HETATM   21  C   UNL     1      28.512  17.580 -16.835  1.00  0.00     0.005 C 
ENDBRANCH  19  20
ENDBRANCH  18  19
ENDBRANCH  17  18
ENDBRANCH  16  17
ENDBRANCH  15  16
ENDBRANCH  14  15
ENDBRANCH  13  14
ENDBRANCH  12  13
ENDBRANCH  11  12
ENDBRANCH  10  11
ENDBRANCH   9  10
ENDBRANCH   8   9
ENDBRANCH   7   8
ENDBRANCH   6   7
ENDBRANCH   5   6
ENDBRANCH   3   5
ENDBRANCH   1   3
TORSDOF 17
ENDMDL
MODEL 17
REMARK VINA RESULT:      -4.7     20.768     22.018
REMARK  17 active torsions:
REMARK  status: ('A' for Active; 'I' for Inactive)
REMARK    1  A    between atoms: O_1  and  C_20 
REMARK    2  A    between atoms: C_3  and  C_4 
REMARK    3  A    between atoms: C_3  and  C_5 
REMARK    4  A    between atoms: C_4  and  C_6 
REMARK    5  A    between atoms: C_5  and  C_7 
REMARK    6  A    between atoms: C_6  and  C_8 
REMARK    7  A    between atoms: C_7  and  C_9 
REMARK    8  A    between atoms: C_8  and  C_10 
REMARK    9  A    between atoms: C_9  and  C_11 
REMARK   10  A    between atoms: C_10  and  C_12 
REMARK   11  A    between atoms: C_11  and  C_13 
REMARK   12  A    between atoms: C_12  and  C_14 
REMARK   13  A    between atoms: C_13  and  C_15 
REMARK   14  A    between atoms: C_14  and  C_16 
REMARK   15  A    between atoms: C_15  and  C_17 
REMARK   16  A    between atoms: C_16  and  C_18 
REMARK   17  A    between atoms: C_18  and  C_20 
ROOT
HETATM    1  O   UNL     1      27.921  11.932 -18.059  1.00  0.00    -0.776 OA
HETATM    2  H   UNL     1      28.773  12.201 -17.687  1.00  0.00     0.167 HD
ENDROOT
BRANCH   1   3
HETATM    3  C   UNL     1      26.854  12.757 -18.048  1.00  0.00     0.139 C 
HETATM    4  O   UNL     1      26.948  13.863 -17.536  1.00  0.00    -0.650 OA
BRANCH   3   5
HETATM    5  C   UNL     1      25.537  12.311 -18.625  1.00  0.00     0.110 C 
BRANCH   5   6
HETATM    6  C   UNL     1      24.797  11.282 -17.749  1.00  0.00     0.010 C 
BRANCH   6   7
HETATM    7  C   UNL     1      25.142  11.307 -16.247  1.00  0.00     0.001 C 
BRANCH   7   8
HETATM    8  C   UNL     1      24.240  12.215 -15.388  1.00  0.00     0.000 C 
BRANCH   8   9
HETATM    9  C   UNL     1      23.888  11.658 -13.994  1.00  0.00     0.000 C 
BRANCH   9  10
HETATM   10  C   UNL     1      24.692  12.264 -12.826  1.00  0.00     0.000 C 
BRANCH  10  11
HETATM   11  C   UNL     1      24.931  11.313 -11.636  1.00  0.00     0.000 C 
BRANCH  11  12
HETATM   12  C   UNL     1      24.662  11.926 -10.247  1.00  0.00     0.000 C 
BRANCH  12  13
HETATM   13  C   UNL     1      25.804  11.754  -9.225  1.00  0.00     0.000 C 
BRANCH  13  14
HETATM   14  C   UNL     1      27.181  11.427  -9.836  1.00  0.00     0.000 C 
BRANCH  14  15
HETATM   15  C   UNL     1      28.158  12.618  -9.919  1.00  0.00     0.000 C 
BRANCH  15  16
HETATM   16  C   UNL     1      27.761  13.719 -10.922  1.00  0.00     0.000 C 
BRANCH  16  17
HETATM   17  C   UNL     1      28.751  14.897 -11.023  1.00  0.00     0.000 C 
BRANCH  17  18
HETATM   18  C   UNL     1      28.487  15.874 -12.186  1.00  0.00     0.000 C 
BRANCH  18  19
HETATM   19  C   UNL     1      29.555  15.866 -13.299  1.00  0.00    -0.000 C 
BRANCH  19  20
HETATM   20  C   UNL     1      29.069  15.365 -14.671  1.00  0.00    -0.005 C 
HETATM   21  C   UNL     1      29.244  16.395 -15.786  1.00  0.00     0.005 C 
ENDBRANCH  19  20
ENDBRANCH  18  19
ENDBRANCH  17  18
ENDBRANCH  16  17
ENDBRANCH  15  16
ENDBRANCH  14  15
ENDBRANCH  13  14
ENDBRANCH  12  13
ENDBRANCH  11  12
ENDBRANCH  10  11
ENDBRANCH   9  10
ENDBRANCH   8   9
ENDBRANCH   7   8
ENDBRANCH   6   7
ENDBRANCH   5   6
ENDBRANCH   3   5
ENDBRANCH   1   3
TORSDOF 17
ENDMDL
MODEL 18
REMARK VINA RESULT:      -4.7     22.909     24.960
REMARK  17 active torsions:
REMARK  status: ('A' for Active; 'I' for Inactive)
REMARK    1  A    between atoms: O_1  and  C_20 
REMARK    2  A    between atoms: C_3  and  C_4 
REMARK    3  A    between atoms: C_3  and  C_5 
REMARK    4  A    between atoms: C_4  and  C_6 
REMARK    5  A    between atoms: C_5  and  C_7 
REMARK    6  A    between atoms: C_6  and  C_8 
REMARK    7  A    between atoms: C_7  and  C_9 
REMARK    8  A    between atoms: C_8  and  C_10 
REMARK    9  A    between atoms: C_9  and  C_11 
REMARK   10  A    between atoms: C_10  and  C_12 
REMARK   11  A    between atoms: C_11  and  C_13 
REMARK   12  A    between atoms: C_12  and  C_14 
REMARK   13  A    between atoms: C_13  and  C_15 
REMARK   14  A    between atoms: C_14  and  C_16 
REMARK   15  A    between atoms: C_15  and  C_17 
REMARK   16  A    between atoms: C_16  and  C_18 
REMARK   17  A    between atoms: C_18  and  C_20 
ROOT
HETATM    1  O   UNL     1      30.372   7.963 -13.390  1.00  0.00    -0.776 OA
HETATM    2  H   UNL     1      30.829   8.491 -14.059  1.00  0.00     0.167 HD
ENDROOT
BRANCH   1   3
HETATM    3  C   UNL     1      30.699   6.673 -13.164  1.00  0.00     0.139 C 
HETATM    4  O   UNL     1      30.193   6.075 -12.226  1.00  0.00    -0.650 OA
BRANCH   3   5
HETATM    5  C   UNL     1      31.713   5.979 -14.034  1.00  0.00     0.110 C 
BRANCH   5   6
HETATM    6  C   UNL     1      31.953   6.681 -15.384  1.00  0.00     0.010 C 
BRANCH   6   7
HETATM    7  C   UNL     1      31.670   5.835 -16.642  1.00  0.00     0.001 C 
BRANCH   7   8
HETATM    8  C   UNL     1      30.668   6.460 -17.633  1.00  0.00     0.000 C 
BRANCH   8   9
HETATM    9  C   UNL     1      30.930   6.139 -19.119  1.00  0.00     0.000 C 
BRANCH   9  10
HETATM   10  C   UNL     1      31.085   7.369 -20.035  1.00  0.00     0.000 C 
BRANCH  10  11
HETATM   11  C   UNL     1      32.476   7.528 -20.683  1.00  0.00     0.000 C 
BRANCH  11  12
HETATM   12  C   UNL     1      33.245   6.212 -20.910  1.00  0.00     0.000 C 
BRANCH  12  13
HETATM   13  C   UNL     1      34.756   6.277 -20.605  1.00  0.00     0.000 C 
BRANCH  13  14
HETATM   14  C   UNL     1      35.300   7.688 -20.306  1.00  0.00     0.000 C 
BRANCH  14  15
HETATM   15  C   UNL     1      35.862   7.883 -18.884  1.00  0.00     0.000 C 
BRANCH  15  16
HETATM   16  C   UNL     1      34.895   7.515 -17.742  1.00  0.00     0.000 C 
BRANCH  16  17
HETATM   17  C   UNL     1      34.801   8.551 -16.605  1.00  0.00     0.000 C 
BRANCH  17  18
HETATM   18  C   UNL     1      36.125   8.829 -15.865  1.00  0.00     0.000 C 
BRANCH  18  19
HETATM   19  C   UNL     1      36.074   8.617 -14.338  1.00  0.00    -0.000 C 
BRANCH  19  20
HETATM   20  C   UNL     1      35.302   7.367 -13.875  1.00  0.00    -0.005 C 
HETATM   21  C   UNL     1      34.785   7.475 -12.441  1.00  0.00     0.005 C 
ENDBRANCH  19  20
ENDBRANCH  18  19
ENDBRANCH  17  18
ENDBRANCH  16  17
ENDBRANCH  15  16
ENDBRANCH  14  15
ENDBRANCH  13  14
ENDBRANCH  12  13
ENDBRANCH  11  12
ENDBRANCH  10  11
ENDBRANCH   9  10
ENDBRANCH   8   9
ENDBRANCH   7   8
ENDBRANCH   6   7
ENDBRANCH   5   6
ENDBRANCH   3   5
ENDBRANCH   1   3
TORSDOF 17
ENDMDL
MODEL 19
REMARK VINA RESULT:      -4.7     21.929     23.287
REMARK  17 active torsions:
REMARK  status: ('A' for Active; 'I' for Inactive)
REMARK    1  A    between atoms: O_1  and  C_20 
REMARK    2  A    between atoms: C_3  and  C_4 
REMARK    3  A    between atoms: C_3  and  C_5 
REMARK    4  A    between atoms: C_4  and  C_6 
REMARK    5  A    between atoms: C_5  and  C_7 
REMARK    6  A    between atoms: C_6  and  C_8 
REMARK    7  A    between atoms: C_7  and  C_9 
REMARK    8  A    between atoms: C_8  and  C_10 
REMARK    9  A    between atoms: C_9  and  C_11 
REMARK   10  A    between atoms: C_10  and  C_12 
REMARK   11  A    between atoms: C_11  and  C_13 
REMARK   12  A    between atoms: C_12  and  C_14 
REMARK   13  A    between atoms: C_13  and  C_15 
REMARK   14  A    between atoms: C_14  and  C_16 
REMARK   15  A    between atoms: C_15  and  C_17 
REMARK   16  A    between atoms: C_16  and  C_18 
REMARK   17  A    between atoms: C_18  and  C_20 
ROOT
HETATM    1  O   UNL     1      31.071  18.370 -13.089  1.00  0.00    -0.776 OA
HETATM    2  H   UNL     1      31.417  19.266 -12.976  1.00  0.00     0.167 HD
ENDROOT
BRANCH   1   3
HETATM    3  C   UNL     1      31.544  17.335 -12.365  1.00  0.00     0.139 C 
HETATM    4  O   UNL     1      32.692  17.363 -11.945  1.00  0.00    -0.650 OA
BRANCH   3   5
HETATM    5  C   UNL     1      30.683  16.127 -12.107  1.00  0.00     0.110 C 
BRANCH   5   6
HETATM    6  C   UNL     1      29.251  16.261 -12.658  1.00  0.00     0.010 C 
BRANCH   6   7
HETATM    7  C   UNL     1      28.162  15.474 -11.900  1.00  0.00     0.001 C 
BRANCH   7   8
HETATM    8  C   UNL     1      28.681  14.286 -11.066  1.00  0.00     0.000 C 
BRANCH   8   9
HETATM    9  C   UNL     1      28.957  12.996 -11.865  1.00  0.00     0.000 C 
BRANCH   9  10
HETATM   10  C   UNL     1      27.889  12.639 -12.918  1.00  0.00     0.000 C 
BRANCH  10  11
HETATM   11  C   UNL     1      28.381  12.662 -14.380  1.00  0.00     0.000 C 
BRANCH  11  12
HETATM   12  C   UNL     1      27.266  12.736 -15.442  1.00  0.00     0.000 C 
BRANCH  12  13
HETATM   13  C   UNL     1      26.893  11.389 -16.094  1.00  0.00     0.000 C 
BRANCH  13  14
HETATM   14  C   UNL     1      25.381  11.098 -16.167  1.00  0.00     0.000 C 
BRANCH  14  15
HETATM   15  C   UNL     1      24.479  12.156 -15.500  1.00  0.00     0.000 C 
BRANCH  15  16
HETATM   16  C   UNL     1      23.787  11.699 -14.202  1.00  0.00     0.000 C 
BRANCH  16  17
HETATM   17  C   UNL     1      24.320  12.354 -12.912  1.00  0.00     0.000 C 
BRANCH  17  18
HETATM   18  C   UNL     1      24.819  11.368 -11.837  1.00  0.00     0.000 C 
BRANCH  18  19
HETATM   19  C   UNL     1      25.096  11.996 -10.455  1.00  0.00    -0.000 C 
BRANCH  19  20
HETATM   20  C   UNL     1      23.954  11.855  -9.431  1.00  0.00    -0.005 C 
HETATM   21  C   UNL     1      24.316  12.394  -8.047  1.00  0.00     0.005 C 
ENDBRANCH  19  20
ENDBRANCH  18  19
ENDBRANCH  17  18
ENDBRANCH  16  17
ENDBRANCH  15  16
ENDBRANCH  14  15
ENDBRANCH  13  14
ENDBRANCH  12  13
ENDBRANCH  11  12
ENDBRANCH  10  11
ENDBRANCH   9  10
ENDBRANCH   8   9
ENDBRANCH   7   8
ENDBRANCH   6   7
ENDBRANCH   5   6
ENDBRANCH   3   5
ENDBRANCH   1   3
TORSDOF 17
ENDMDL
MODEL 20
REMARK VINA RESULT:      -4.6     22.719     25.132
REMARK  17 active torsions:
REMARK  status: ('A' for Active; 'I' for Inactive)
REMARK    1  A    between atoms: O_1  and  C_20 
REMARK    2  A    between atoms: C_3  and  C_4 
REMARK    3  A    between atoms: C_3  and  C_5 
REMARK    4  A    between atoms: C_4  and  C_6 
REMARK    5  A    between atoms: C_5  and  C_7 
REMARK    6  A    between atoms: C_6  and  C_8 
REMARK    7  A    between atoms: C_7  and  C_9 
REMARK    8  A    between atoms: C_8  and  C_10 
REMARK    9  A    between atoms: C_9  and  C_11 
REMARK   10  A    between atoms: C_10  and  C_12 
REMARK   11  A    between atoms: C_11  and  C_13 
REMARK   12  A    between atoms: C_12  and  C_14 
REMARK   13  A    between atoms: C_13  and  C_15 
REMARK   14  A    between atoms: C_14  and  C_16 
REMARK   15  A    between atoms: C_15  and  C_17 
REMARK   16  A    between atoms: C_16  and  C_18 
REMARK   17  A    between atoms: C_18  and  C_20 
ROOT
HETATM    1  O   UNL     1      32.212   4.867 -11.849  1.00  0.00    -0.776 OA
HETATM    2  H   UNL     1      33.133   5.142 -11.744  1.00  0.00     0.167 HD
ENDROOT
BRANCH   1   3
HETATM    3  C   UNL     1      31.190   5.669 -11.489  1.00  0.00     0.139 C 
HETATM    4  O   UNL     1      30.145   5.641 -12.122  1.00  0.00    -0.650 OA
BRANCH   3   5
HETATM    5  C   UNL     1      31.340   6.630 -10.338  1.00  0.00     0.110 C 
BRANCH   5   6
HETATM    6  C   UNL     1      32.366   6.172  -9.284  1.00  0.00     0.010 C 
BRANCH   6   7
HETATM    7  C   UNL     1      33.684   6.970  -9.237  1.00  0.00     0.001 C 
BRANCH   7   8
HETATM    8  C   UNL     1      34.791   6.452 -10.176  1.00  0.00     0.000 C 
BRANCH   8   9
HETATM    9  C   UNL     1      35.257   7.450 -11.255  1.00  0.00     0.000 C 
BRANCH   9  10
HETATM   10  C   UNL     1      34.325   8.659 -11.470  1.00  0.00     0.000 C 
BRANCH  10  11
HETATM   11  C   UNL     1      33.307   8.503 -12.619  1.00  0.00     0.000 C 
BRANCH  11  12
HETATM   12  C   UNL     1      33.809   8.961 -14.002  1.00  0.00     0.000 C 
BRANCH  12  13
HETATM   13  C   UNL     1      34.095   7.823 -15.004  1.00  0.00     0.000 C 
BRANCH  13  14
HETATM   14  C   UNL     1      33.604   6.429 -14.563  1.00  0.00     0.000 C 
BRANCH  14  15
HETATM   15  C   UNL     1      32.271   5.977 -15.191  1.00  0.00     0.000 C 
BRANCH  15  16
HETATM   16  C   UNL     1      31.719   6.906 -16.290  1.00  0.00     0.000 C 
BRANCH  16  17
HETATM   17  C   UNL     1      31.200   6.188 -17.552  1.00  0.00     0.000 C 
BRANCH  17  18
HETATM   18  C   UNL     1      31.995   6.476 -18.841  1.00  0.00     0.000 C 
BRANCH  18  19
HETATM   19  C   UNL     1      33.210   7.410 -18.662  1.00  0.00    -0.000 C 
BRANCH  19  20
HETATM   20  C   UNL     1      34.583   6.715 -18.711  1.00  0.00    -0.005 C 
HETATM   21  C   UNL     1      35.351   6.987 -20.005  1.00  0.00     0.005 C 
ENDBRANCH  19  20
ENDBRANCH  18  19
ENDBRANCH  17  18
ENDBRANCH  16  17
ENDBRANCH  15  16
ENDBRANCH  14  15
ENDBRANCH  13  14
ENDBRANCH  12  13
ENDBRANCH  11  12
ENDBRANCH  10  11
ENDBRANCH   9  10
ENDBRANCH   8   9
ENDBRANCH   7   8
ENDBRANCH   6   7
ENDBRANCH   5   6
ENDBRANCH   3   5
ENDBRANCH   1   3
TORSDOF 17
ENDMDL
