MODEL 1
REMARK VINA RESULT:      -5.4      0.000      0.000
REMARK  15 active torsions:
REMARK  status: ('A' for Active; 'I' for Inactive)
REMARK    1  A    between atoms: O_1  and  C_23 
REMARK    2  A    between atoms: C_3  and  C_7 
REMARK    3  A    between atoms: C_3  and  C_8 
REMARK    4  A    between atoms: C_4  and  C_10 
REMARK    5  A    between atoms: C_4  and  C_11 
REMARK    6  A    between atoms: C_5  and  C_12 
REMARK    7  A    between atoms: C_5  and  C_13 
REMARK    8  A    between atoms: C_6  and  C_15 
REMARK    9  A    between atoms: C_6  and  C_16 
REMARK   10  A    between atoms: C_7  and  C_23 
REMARK   11  A    between atoms: C_9  and  C_17 
REMARK   12  A    between atoms: C_9  and  C_18 
REMARK   13  A    between atoms: C_14  and  C_19 
REMARK   14  A    between atoms: C_14  and  C_20 
REMARK   15  A    between atoms: C_21  and  C_22 
ROOT
HETATM    1  O   UNL     1      30.942  17.619 -17.301  1.00  0.00    -0.776 OA
HETATM    2  H   UNL     1      31.444  18.436 -17.429  1.00  0.00     0.167 HD
ENDROOT
BRANCH   1   3
HETATM    3  C   UNL     1      29.692  17.476 -17.790  1.00  0.00     0.139 C 
HETATM    4  O   UNL     1      29.469  17.690 -18.973  1.00  0.00    -0.650 OA
BRANCH   3   5
HETATM    5  C   UNL     1      28.577  17.051 -16.877  1.00  0.00     0.113 C 
BRANCH   5   6
HETATM    6  C   UNL     1      28.987  15.830 -16.046  1.00  0.00     0.037 C 
BRANCH   6   7
HETATM    7  C   UNL     1      28.112  14.644 -16.376  1.00  0.00    -0.030 C 
HETATM    8  C   UNL     1      27.893  13.557 -15.606  1.00  0.00    -0.027 C 
BRANCH   8   9
HETATM    9  C   UNL     1      28.467  13.268 -14.235  1.00  0.00     0.053 C 
BRANCH   9  10
HETATM   10  C   UNL     1      27.540  13.756 -13.151  1.00  0.00    -0.027 C 
HETATM   11  C   UNL     1      26.586  13.026 -12.545  1.00  0.00    -0.027 C 
BRANCH  11  12
HETATM   12  C   UNL     1      26.309  11.567 -12.799  1.00  0.00     0.053 C 
BRANCH  12  13
HETATM   13  C   UNL     1      24.825  11.297 -12.824  1.00  0.00    -0.027 C 
HETATM   14  C   UNL     1      23.988  11.513 -13.856  1.00  0.00    -0.027 C 
BRANCH  14  15
HETATM   15  C   UNL     1      24.355  12.116 -15.186  1.00  0.00     0.053 C 
BRANCH  15  16
HETATM   16  C   UNL     1      25.121  11.085 -15.986  1.00  0.00    -0.027 C 
HETATM   17  C   UNL     1      25.603  11.201 -17.239  1.00  0.00    -0.027 C 
BRANCH  17  18
HETATM   18  C   UNL     1      25.510  12.402 -18.143  1.00  0.00     0.053 C 
BRANCH  18  19
HETATM   19  C   UNL     1      24.317  12.287 -19.063  1.00  0.00    -0.027 C 
HETATM   20  C   UNL     1      24.303  11.845 -20.337  1.00  0.00    -0.027 C 
BRANCH  20  21
HETATM   21  C   UNL     1      25.471  11.309 -21.127  1.00  0.00     0.053 C 
BRANCH  21  22
HETATM   22  C   UNL     1      26.035  12.372 -22.042  1.00  0.00    -0.027 C 
HETATM   23  C   UNL     1      27.092  13.172 -21.807  1.00  0.00    -0.031 C 
BRANCH  23  24
HETATM   24  C   UNL     1      27.940  13.196 -20.561  1.00  0.00     0.022 C 
HETATM   25  C   UNL     1      28.492  14.583 -20.258  1.00  0.00     0.009 C 
ENDBRANCH  23  24
ENDBRANCH  21  22
ENDBRANCH  20  21
ENDBRANCH  18  19
ENDBRANCH  17  18
ENDBRANCH  15  16
ENDBRANCH  14  15
ENDBRANCH  12  13
ENDBRANCH  11  12
ENDBRANCH   9  10
ENDBRANCH   8   9
ENDBRANCH   6   7
ENDBRANCH   5   6
ENDBRANCH   3   5
ENDBRANCH   1   3
TORSDOF 15
ENDMDL
MODEL 2
REMARK VINA RESULT:      -5.4      4.222      6.383
REMARK  15 active torsions:
REMARK  status: ('A' for Active; 'I' for Inactive)
REMARK    1  A    between atoms: O_1  and  C_23 
REMARK    2  A    between atoms: C_3  and  C_7 
REMARK    3  A    between atoms: C_3  and  C_8 
REMARK    4  A    between atoms: C_4  and  C_10 
REMARK    5  A    between atoms: C_4  and  C_11 
REMARK    6  A    between atoms: C_5  and  C_12 
REMARK    7  A    between atoms: C_5  and  C_13 
REMARK    8  A    between atoms: C_6  and  C_15 
REMARK    9  A    between atoms: C_6  and  C_16 
REMARK   10  A    between atoms: C_7  and  C_23 
REMARK   11  A    between atoms: C_9  and  C_17 
REMARK   12  A    between atoms: C_9  and  C_18 
REMARK   13  A    between atoms: C_14  and  C_19 
REMARK   14  A    between atoms: C_14  and  C_20 
REMARK   15  A    between atoms: C_21  and  C_22 
ROOT
HETATM    1  O   UNL     1      25.665  13.168  -7.882  1.00  0.00    -0.776 OA
HETATM    2  H   UNL     1      25.674  13.638  -8.727  1.00  0.00     0.167 HD
ENDROOT
BRANCH   1   3
HETATM    3  C   UNL     1      24.719  12.248  -7.597  1.00  0.00     0.139 C 
HETATM    4  O   UNL     1      24.357  12.079  -6.441  1.00  0.00    -0.650 OA
BRANCH   3   5
HETATM    5  C   UNL     1      24.109  11.438  -8.705  1.00  0.00     0.113 C 
BRANCH   5   6
HETATM    6  C   UNL     1      24.178  12.194 -10.037  1.00  0.00     0.037 C 
BRANCH   6   7
HETATM    7  C   UNL     1      25.468  11.884 -10.759  1.00  0.00    -0.030 C 
HETATM    8  C   UNL     1      25.601  11.368 -11.999  1.00  0.00    -0.027 C 
BRANCH   8   9
HETATM    9  C   UNL     1      24.497  10.978 -12.959  1.00  0.00     0.053 C 
BRANCH   9  10
HETATM   10  C   UNL     1      24.106  12.145 -13.830  1.00  0.00    -0.027 C 
HETATM   11  C   UNL     1      24.407  12.287 -15.134  1.00  0.00    -0.027 C 
BRANCH  11  12
HETATM   12  C   UNL     1      25.141  11.276 -15.976  1.00  0.00     0.053 C 
BRANCH  12  13
HETATM   13  C   UNL     1      26.546  11.741 -16.272  1.00  0.00    -0.027 C 
HETATM   14  C   UNL     1      26.962  12.384 -17.379  1.00  0.00    -0.027 C 
BRANCH  14  15
HETATM   15  C   UNL     1      26.116  12.730 -18.575  1.00  0.00     0.053 C 
BRANCH  15  16
HETATM   16  C   UNL     1      25.373  11.488 -19.014  1.00  0.00    -0.027 C 
HETATM   17  C   UNL     1      24.653  11.307 -20.139  1.00  0.00    -0.027 C 
BRANCH  17  18
HETATM   18  C   UNL     1      24.433  12.302 -21.248  1.00  0.00     0.053 C 
BRANCH  18  19
HETATM   19  C   UNL     1      25.194  11.897 -22.488  1.00  0.00    -0.027 C 
HETATM   20  C   UNL     1      26.368  12.393 -22.930  1.00  0.00    -0.027 C 
BRANCH  20  21
HETATM   21  C   UNL     1      27.226  13.435 -22.257  1.00  0.00     0.053 C 
BRANCH  21  22
HETATM   22  C   UNL     1      28.693  13.143 -22.468  1.00  0.00    -0.027 C 
HETATM   23  C   UNL     1      29.512  12.451 -21.652  1.00  0.00    -0.031 C 
BRANCH  23  24
HETATM   24  C   UNL     1      29.146  11.830 -20.330  1.00  0.00     0.022 C 
HETATM   25  C   UNL     1      28.727  10.372 -20.467  1.00  0.00     0.009 C 
ENDBRANCH  23  24
ENDBRANCH  21  22
ENDBRANCH  20  21
ENDBRANCH  18  19
ENDBRANCH  17  18
ENDBRANCH  15  16
ENDBRANCH  14  15
ENDBRANCH  12  13
ENDBRANCH  11  12
ENDBRANCH   9  10
ENDBRANCH   8   9
ENDBRANCH   6   7
ENDBRANCH   5   6
ENDBRANCH   3   5
ENDBRANCH   1   3
TORSDOF 15
ENDMDL
MODEL 3
REMARK VINA RESULT:      -5.3      2.880      7.089
REMARK  15 active torsions:
REMARK  status: ('A' for Active; 'I' for Inactive)
REMARK    1  A    between atoms: O_1  and  C_23 
REMARK    2  A    between atoms: C_3  and  C_7 
REMARK    3  A    between atoms: C_3  and  C_8 
REMARK    4  A    between atoms: C_4  and  C_10 
REMARK    5  A    between atoms: C_4  and  C_11 
REMARK    6  A    between atoms: C_5  and  C_12 
REMARK    7  A    between atoms: C_5  and  C_13 
REMARK    8  A    between atoms: C_6  and  C_15 
REMARK    9  A    between atoms: C_6  and  C_16 
REMARK   10  A    between atoms: C_7  and  C_23 
REMARK   11  A    between atoms: C_9  and  C_17 
REMARK   12  A    between atoms: C_9  and  C_18 
REMARK   13  A    between atoms: C_14  and  C_19 
REMARK   14  A    between atoms: C_14  and  C_20 
REMARK   15  A    between atoms: C_21  and  C_22 
ROOT
HETATM    1  O   UNL     1      26.261  13.295 -22.585  1.00  0.00    -0.776 OA
HETATM    2  H   UNL     1      26.229  13.565 -21.657  1.00  0.00     0.167 HD
ENDROOT
BRANCH   1   3
HETATM    3  C   UNL     1      25.410  12.370 -23.079  1.00  0.00     0.139 C 
HETATM    4  O   UNL     1      25.140  12.361 -24.271  1.00  0.00    -0.650 OA
BRANCH   3   5
HETATM    5  C   UNL     1      24.800  11.351 -22.159  1.00  0.00     0.113 C 
BRANCH   5   6
HETATM    6  C   UNL     1      25.455  11.403 -20.774  1.00  0.00     0.037 C 
BRANCH   6   7
HETATM    7  C   UNL     1      24.419  11.653 -19.704  1.00  0.00    -0.030 C 
HETATM    8  C   UNL     1      24.623  12.207 -18.490  1.00  0.00    -0.027 C 
BRANCH   8   9
HETATM    9  C   UNL     1      25.930  12.707 -17.913  1.00  0.00     0.053 C 
BRANCH   9  10
HETATM   10  C   UNL     1      26.748  11.563 -17.367  1.00  0.00    -0.027 C 
HETATM   11  C   UNL     1      26.892  11.251 -16.067  1.00  0.00    -0.027 C 
BRANCH  11  12
HETATM   12  C   UNL     1      26.215  11.953 -14.919  1.00  0.00     0.053 C 
BRANCH  12  13
HETATM   13  C   UNL     1      24.769  11.535 -14.810  1.00  0.00    -0.027 C 
HETATM   14  C   UNL     1      23.986  11.632 -13.720  1.00  0.00    -0.027 C 
BRANCH  14  15
HETATM   15  C   UNL     1      24.408  12.136 -12.365  1.00  0.00     0.053 C 
BRANCH  15  16
HETATM   16  C   UNL     1      25.283  11.088 -11.714  1.00  0.00    -0.027 C 
HETATM   17  C   UNL     1      26.461  11.268 -11.083  1.00  0.00    -0.027 C 
BRANCH  17  18
HETATM   18  C   UNL     1      27.184  12.570 -10.859  1.00  0.00     0.053 C 
BRANCH  18  19
HETATM   19  C   UNL     1      28.190  12.817 -11.959  1.00  0.00    -0.027 C 
HETATM   20  C   UNL     1      28.554  14.004 -12.488  1.00  0.00    -0.027 C 
BRANCH  20  21
HETATM   21  C   UNL     1      28.078  15.372 -12.065  1.00  0.00     0.053 C 
BRANCH  21  22
HETATM   22  C   UNL     1      29.238  16.226 -11.608  1.00  0.00    -0.027 C 
HETATM   23  C   UNL     1      29.780  17.278 -12.253  1.00  0.00    -0.031 C 
BRANCH  23  24
HETATM   24  C   UNL     1      29.357  17.823 -13.593  1.00  0.00     0.022 C 
HETATM   25  C   UNL     1      30.242  17.328 -14.730  1.00  0.00     0.009 C 
ENDBRANCH  23  24
ENDBRANCH  21  22
ENDBRANCH  20  21
ENDBRANCH  18  19
ENDBRANCH  17  18
ENDBRANCH  15  16
ENDBRANCH  14  15
ENDBRANCH  12  13
ENDBRANCH  11  12
ENDBRANCH   9  10
ENDBRANCH   8   9
ENDBRANCH   6   7
ENDBRANCH   5   6
ENDBRANCH   3   5
ENDBRANCH   1   3
TORSDOF 15
ENDMDL
MODEL 4
REMARK VINA RESULT:      -5.2      1.312      6.314
REMARK  15 active torsions:
REMARK  status: ('A' for Active; 'I' for Inactive)
REMARK    1  A    between atoms: O_1  and  C_23 
REMARK    2  A    between atoms: C_3  and  C_7 
REMARK    3  A    between atoms: C_3  and  C_8 
REMARK    4  A    between atoms: C_4  and  C_10 
REMARK    5  A    between atoms: C_4  and  C_11 
REMARK    6  A    between atoms: C_5  and  C_12 
REMARK    7  A    between atoms: C_5  and  C_13 
REMARK    8  A    between atoms: C_6  and  C_15 
REMARK    9  A    between atoms: C_6  and  C_16 
REMARK   10  A    between atoms: C_7  and  C_23 
REMARK   11  A    between atoms: C_9  and  C_17 
REMARK   12  A    between atoms: C_9  and  C_18 
REMARK   13  A    between atoms: C_14  and  C_19 
REMARK   14  A    between atoms: C_14  and  C_20 
REMARK   15  A    between atoms: C_21  and  C_22 
ROOT
HETATM    1  O   UNL     1      28.471  16.998 -16.840  1.00  0.00    -0.776 OA
HETATM    2  H   UNL     1      27.506  16.970 -16.776  1.00  0.00     0.167 HD
ENDROOT
BRANCH   1   3
HETATM    3  C   UNL     1      29.116  16.563 -17.944  1.00  0.00     0.139 C 
HETATM    4  O   UNL     1      29.398  17.348 -18.838  1.00  0.00    -0.650 OA
BRANCH   3   5
HETATM    5  C   UNL     1      29.489  15.113 -18.066  1.00  0.00     0.113 C 
BRANCH   5   6
HETATM    6  C   UNL     1      28.292  14.278 -18.535  1.00  0.00     0.037 C 
BRANCH   6   7
HETATM    7  C   UNL     1      28.286  14.153 -20.039  1.00  0.00    -0.030 C 
HETATM    8  C   UNL     1      27.951  13.063 -20.762  1.00  0.00    -0.027 C 
BRANCH   8   9
HETATM    9  C   UNL     1      27.502  11.714 -20.242  1.00  0.00     0.053 C 
BRANCH   9  10
HETATM   10  C   UNL     1      26.512  11.078 -21.184  1.00  0.00    -0.027 C 
HETATM   11  C   UNL     1      25.177  11.240 -21.149  1.00  0.00    -0.027 C 
BRANCH  11  12
HETATM   12  C   UNL     1      24.431  12.136 -20.194  1.00  0.00     0.053 C 
BRANCH  12  13
HETATM   13  C   UNL     1      23.987  11.370 -18.973  1.00  0.00    -0.027 C 
HETATM   14  C   UNL     1      24.528  11.438 -17.742  1.00  0.00    -0.027 C 
BRANCH  14  15
HETATM   15  C   UNL     1      25.725  12.260 -17.343  1.00  0.00     0.053 C 
BRANCH  15  16
HETATM   16  C   UNL     1      26.745  11.345 -16.702  1.00  0.00    -0.027 C 
HETATM   17  C   UNL     1      27.410  11.529 -15.543  1.00  0.00    -0.027 C 
BRANCH  17  18
HETATM   18  C   UNL     1      27.280  12.691 -14.594  1.00  0.00     0.053 C 
BRANCH  18  19
HETATM   19  C   UNL     1      28.290  12.582 -13.476  1.00  0.00    -0.027 C 
HETATM   20  C   UNL     1      28.130  11.976 -12.282  1.00  0.00    -0.027 C 
BRANCH  20  21
HETATM   21  C   UNL     1      26.918  11.215 -11.803  1.00  0.00     0.053 C 
BRANCH  21  22
HETATM   22  C   UNL     1      25.759  12.151 -11.552  1.00  0.00    -0.027 C 
HETATM   23  C   UNL     1      24.595  12.206 -12.227  1.00  0.00    -0.031 C 
BRANCH  23  24
HETATM   24  C   UNL     1      24.198  11.351 -13.402  1.00  0.00     0.022 C 
HETATM   25  C   UNL     1      23.497  12.150 -14.494  1.00  0.00     0.009 C 
ENDBRANCH  23  24
ENDBRANCH  21  22
ENDBRANCH  20  21
ENDBRANCH  18  19
ENDBRANCH  17  18
ENDBRANCH  15  16
ENDBRANCH  14  15
ENDBRANCH  12  13
ENDBRANCH  11  12
ENDBRANCH   9  10
ENDBRANCH   8   9
ENDBRANCH   6   7
ENDBRANCH   5   6
ENDBRANCH   3   5
ENDBRANCH   1   3
TORSDOF 15
ENDMDL
MODEL 5
REMARK VINA RESULT:      -5.2      2.295      5.223
REMARK  15 active torsions:
REMARK  status: ('A' for Active; 'I' for Inactive)
REMARK    1  A    between atoms: O_1  and  C_23 
REMARK    2  A    between atoms: C_3  and  C_7 
REMARK    3  A    between atoms: C_3  and  C_8 
REMARK    4  A    between atoms: C_4  and  C_10 
REMARK    5  A    between atoms: C_4  and  C_11 
REMARK    6  A    between atoms: C_5  and  C_12 
REMARK    7  A    between atoms: C_5  and  C_13 
REMARK    8  A    between atoms: C_6  and  C_15 
REMARK    9  A    between atoms: C_6  and  C_16 
REMARK   10  A    between atoms: C_7  and  C_23 
REMARK   11  A    between atoms: C_9  and  C_17 
REMARK   12  A    between atoms: C_9  and  C_18 
REMARK   13  A    between atoms: C_14  and  C_19 
REMARK   14  A    between atoms: C_14  and  C_20 
REMARK   15  A    between atoms: C_21  and  C_22 
ROOT
HETATM    1  O   UNL     1      27.267  19.578 -17.116  1.00  0.00    -0.776 OA
HETATM    2  H   UNL     1      27.482  20.517 -17.199  1.00  0.00     0.167 HD
ENDROOT
BRANCH   1   3
HETATM    3  C   UNL     1      28.137  18.620 -17.500  1.00  0.00     0.139 C 
HETATM    4  O   UNL     1      28.637  18.658 -18.616  1.00  0.00    -0.650 OA
BRANCH   3   5
HETATM    5  C   UNL     1      28.493  17.510 -16.552  1.00  0.00     0.113 C 
BRANCH   5   6
HETATM    6  C   UNL     1      28.892  16.243 -17.318  1.00  0.00     0.037 C 
BRANCH   6   7
HETATM    7  C   UNL     1      28.020  15.079 -16.911  1.00  0.00    -0.030 C 
HETATM    8  C   UNL     1      27.749  13.975 -17.638  1.00  0.00    -0.027 C 
BRANCH   8   9
HETATM    9  C   UNL     1      28.249  13.640 -19.028  1.00  0.00     0.053 C 
BRANCH   9  10
HETATM   10  C   UNL     1      28.078  12.171 -19.320  1.00  0.00    -0.027 C 
HETATM   11  C   UNL     1      26.979  11.596 -19.840  1.00  0.00    -0.027 C 
BRANCH  11  12
HETATM   12  C   UNL     1      25.736  12.325 -20.280  1.00  0.00     0.053 C 
BRANCH  12  13
HETATM   13  C   UNL     1      24.496  11.604 -19.814  1.00  0.00    -0.027 C 
HETATM   14  C   UNL     1      24.167  11.312 -18.542  1.00  0.00    -0.027 C 
BRANCH  14  15
HETATM   15  C   UNL     1      25.000  11.602 -17.322  1.00  0.00     0.053 C 
BRANCH  15  16
HETATM   16  C   UNL     1      24.164  12.404 -16.349  1.00  0.00    -0.027 C 
HETATM   17  C   UNL     1      24.094  12.269 -15.009  1.00  0.00    -0.027 C 
BRANCH  17  18
HETATM   18  C   UNL     1      24.854  11.291 -14.153  1.00  0.00     0.053 C 
BRANCH  18  19
HETATM   19  C   UNL     1      26.197  11.861 -13.757  1.00  0.00    -0.027 C 
HETATM   20  C   UNL     1      27.392  11.625 -14.337  1.00  0.00    -0.027 C 
BRANCH  20  21
HETATM   21  C   UNL     1      27.660  10.777 -15.556  1.00  0.00     0.053 C 
BRANCH  21  22
HETATM   22  C   UNL     1      29.060  11.008 -16.074  1.00  0.00    -0.027 C 
HETATM   23  C   UNL     1      30.157  10.270 -15.816  1.00  0.00    -0.031 C 
BRANCH  23  24
HETATM   24  C   UNL     1      30.232   9.053 -14.931  1.00  0.00     0.022 C 
HETATM   25  C   UNL     1      31.516   8.260 -15.138  1.00  0.00     0.009 C 
ENDBRANCH  23  24
ENDBRANCH  21  22
ENDBRANCH  20  21
ENDBRANCH  18  19
ENDBRANCH  17  18
ENDBRANCH  15  16
ENDBRANCH  14  15
ENDBRANCH  12  13
ENDBRANCH  11  12
ENDBRANCH   9  10
ENDBRANCH   8   9
ENDBRANCH   6   7
ENDBRANCH   5   6
ENDBRANCH   3   5
ENDBRANCH   1   3
TORSDOF 15
ENDMDL
MODEL 6
REMARK VINA RESULT:      -5.1      6.048      8.718
REMARK  15 active torsions:
REMARK  status: ('A' for Active; 'I' for Inactive)
REMARK    1  A    between atoms: O_1  and  C_23 
REMARK    2  A    between atoms: C_3  and  C_7 
REMARK    3  A    between atoms: C_3  and  C_8 
REMARK    4  A    between atoms: C_4  and  C_10 
REMARK    5  A    between atoms: C_4  and  C_11 
REMARK    6  A    between atoms: C_5  and  C_12 
REMARK    7  A    between atoms: C_5  and  C_13 
REMARK    8  A    between atoms: C_6  and  C_15 
REMARK    9  A    between atoms: C_6  and  C_16 
REMARK   10  A    between atoms: C_7  and  C_23 
REMARK   11  A    between atoms: C_9  and  C_17 
REMARK   12  A    between atoms: C_9  and  C_18 
REMARK   13  A    between atoms: C_14  and  C_19 
REMARK   14  A    between atoms: C_14  and  C_20 
REMARK   15  A    between atoms: C_21  and  C_22 
ROOT
HETATM    1  O   UNL     1      26.090  10.767 -16.976  1.00  0.00    -0.776 OA
HETATM    2  H   UNL     1      25.733  10.189 -17.664  1.00  0.00     0.167 HD
ENDROOT
BRANCH   1   3
HETATM    3  C   UNL     1      25.513  11.952 -16.684  1.00  0.00     0.139 C 
HETATM    4  O   UNL     1      25.926  12.619 -15.746  1.00  0.00    -0.650 OA
BRANCH   3   5
HETATM    5  C   UNL     1      24.366  12.450 -17.516  1.00  0.00     0.113 C 
BRANCH   5   6
HETATM    6  C   UNL     1      24.025  11.452 -18.629  1.00  0.00     0.037 C 
BRANCH   6   7
HETATM    7  C   UNL     1      24.015  12.138 -19.974  1.00  0.00    -0.030 C 
HETATM    8  C   UNL     1      24.909  11.981 -20.973  1.00  0.00    -0.027 C 
BRANCH   8   9
HETATM    9  C   UNL     1      26.130  11.085 -20.985  1.00  0.00     0.053 C 
BRANCH   9  10
HETATM   10  C   UNL     1      27.371  11.874 -21.316  1.00  0.00    -0.027 C 
HETATM   11  C   UNL     1      28.637  11.475 -21.096  1.00  0.00    -0.027 C 
BRANCH  11  12
HETATM   12  C   UNL     1      29.047  10.140 -20.532  1.00  0.00     0.053 C 
BRANCH  12  13
HETATM   13  C   UNL     1      30.166   9.534 -21.341  1.00  0.00    -0.027 C 
HETATM   14  C   UNL     1      31.147   8.734 -20.883  1.00  0.00    -0.027 C 
BRANCH  14  15
HETATM   15  C   UNL     1      31.357   8.319 -19.451  1.00  0.00     0.053 C 
BRANCH  15  16
HETATM   16  C   UNL     1      31.282   6.811 -19.372  1.00  0.00    -0.027 C 
HETATM   17  C   UNL     1      30.853   6.055 -18.341  1.00  0.00    -0.027 C 
BRANCH  17  18
HETATM   18  C   UNL     1      30.322   6.539 -17.017  1.00  0.00     0.053 C 
BRANCH  18  19
HETATM   19  C   UNL     1      31.260   6.160 -15.896  1.00  0.00    -0.027 C 
HETATM   20  C   UNL     1      32.377   6.807 -15.505  1.00  0.00    -0.027 C 
BRANCH  20  21
HETATM   21  C   UNL     1      32.924   8.097 -16.065  1.00  0.00     0.053 C 
BRANCH  21  22
HETATM   22  C   UNL     1      34.431   8.048 -16.158  1.00  0.00    -0.027 C 
HETATM   23  C   UNL     1      35.169   7.539 -17.164  1.00  0.00    -0.031 C 
BRANCH  23  24
HETATM   24  C   UNL     1      34.649   6.887 -18.418  1.00  0.00     0.022 C 
HETATM   25  C   UNL     1      35.553   7.129 -19.620  1.00  0.00     0.009 C 
ENDBRANCH  23  24
ENDBRANCH  21  22
ENDBRANCH  20  21
ENDBRANCH  18  19
ENDBRANCH  17  18
ENDBRANCH  15  16
ENDBRANCH  14  15
ENDBRANCH  12  13
ENDBRANCH  11  12
ENDBRANCH   9  10
ENDBRANCH   8   9
ENDBRANCH   6   7
ENDBRANCH   5   6
ENDBRANCH   3   5
ENDBRANCH   1   3
TORSDOF 15
ENDMDL
MODEL 7
REMARK VINA RESULT:      -5.1      8.339      9.956
REMARK  15 active torsions:
REMARK  status: ('A' for Active; 'I' for Inactive)
REMARK    1  A    between atoms: O_1  and  C_23 
REMARK    2  A    between atoms: C_3  and  C_7 
REMARK    3  A    between atoms: C_3  and  C_8 
REMARK    4  A    between atoms: C_4  and  C_10 
REMARK    5  A    between atoms: C_4  and  C_11 
REMARK    6  A    between atoms: C_5  and  C_12 
REMARK    7  A    between atoms: C_5  and  C_13 
REMARK    8  A    between atoms: C_6  and  C_15 
REMARK    9  A    between atoms: C_6  and  C_16 
REMARK   10  A    between atoms: C_7  and  C_23 
REMARK   11  A    between atoms: C_9  and  C_17 
REMARK   12  A    between atoms: C_9  and  C_18 
REMARK   13  A    between atoms: C_14  and  C_19 
REMARK   14  A    between atoms: C_14  and  C_20 
REMARK   15  A    between atoms: C_21  and  C_22 
ROOT
HETATM    1  O   UNL     1      34.021   6.072 -17.789  1.00  0.00    -0.776 OA
HETATM    2  H   UNL     1      33.770   6.758 -18.424  1.00  0.00     0.167 HD
ENDROOT
BRANCH   1   3
HETATM    3  C   UNL     1      33.466   6.015 -16.560  1.00  0.00     0.139 C 
HETATM    4  O   UNL     1      32.761   5.065 -16.250  1.00  0.00    -0.650 OA
BRANCH   3   5
HETATM    5  C   UNL     1      33.720   7.119 -15.574  1.00  0.00     0.113 C 
BRANCH   5   6
HETATM    6  C   UNL     1      34.725   6.677 -14.504  1.00  0.00     0.037 C 
BRANCH   6   7
HETATM    7  C   UNL     1      35.657   7.810 -14.148  1.00  0.00    -0.030 C 
HETATM    8  C   UNL     1      35.722   8.470 -12.972  1.00  0.00    -0.027 C 
BRANCH   8   9
HETATM    9  C   UNL     1      34.881   8.234 -11.736  1.00  0.00     0.053 C 
BRANCH   9  10
HETATM   10  C   UNL     1      35.475   7.141 -10.883  1.00  0.00    -0.027 C 
HETATM   11  C   UNL     1      35.103   6.835  -9.627  1.00  0.00    -0.027 C 
BRANCH  11  12
HETATM   12  C   UNL     1      33.983   7.491  -8.863  1.00  0.00     0.053 C 
BRANCH  12  13
HETATM   13  C   UNL     1      33.094   6.458  -8.216  1.00  0.00    -0.027 C 
HETATM   14  C   UNL     1      31.928   5.987  -8.698  1.00  0.00    -0.027 C 
BRANCH  14  15
HETATM   15  C   UNL     1      31.245   6.436  -9.962  1.00  0.00     0.053 C 
BRANCH  15  16
HETATM   16  C   UNL     1      31.886   5.724 -11.133  1.00  0.00    -0.027 C 
HETATM   17  C   UNL     1      31.684   5.943 -12.448  1.00  0.00    -0.027 C 
BRANCH  17  18
HETATM   18  C   UNL     1      30.777   6.973 -13.069  1.00  0.00     0.053 C 
BRANCH  18  19
HETATM   19  C   UNL     1      31.470   8.313 -13.151  1.00  0.00    -0.027 C 
HETATM   20  C   UNL     1      31.175   9.341 -13.974  1.00  0.00    -0.027 C 
BRANCH  20  21
HETATM   21  C   UNL     1      30.045   9.413 -14.970  1.00  0.00     0.053 C 
BRANCH  21  22
HETATM   22  C   UNL     1      30.409   8.695 -16.249  1.00  0.00    -0.027 C 
HETATM   23  C   UNL     1      31.150   9.172 -17.269  1.00  0.00    -0.031 C 
BRANCH  23  24
HETATM   24  C   UNL     1      31.767  10.543 -17.366  1.00  0.00     0.022 C 
HETATM   25  C   UNL     1      33.271  10.523 -17.128  1.00  0.00     0.009 C 
ENDBRANCH  23  24
ENDBRANCH  21  22
ENDBRANCH  20  21
ENDBRANCH  18  19
ENDBRANCH  17  18
ENDBRANCH  15  16
ENDBRANCH  14  15
ENDBRANCH  12  13
ENDBRANCH  11  12
ENDBRANCH   9  10
ENDBRANCH   8   9
ENDBRANCH   6   7
ENDBRANCH   5   6
ENDBRANCH   3   5
ENDBRANCH   1   3
TORSDOF 15
ENDMDL
MODEL 8
REMARK VINA RESULT:      -5.0      4.939      7.783
REMARK  15 active torsions:
REMARK  status: ('A' for Active; 'I' for Inactive)
REMARK    1  A    between atoms: O_1  and  C_23 
REMARK    2  A    between atoms: C_3  and  C_7 
REMARK    3  A    between atoms: C_3  and  C_8 
REMARK    4  A    between atoms: C_4  and  C_10 
REMARK    5  A    between atoms: C_4  and  C_11 
REMARK    6  A    between atoms: C_5  and  C_12 
REMARK    7  A    between atoms: C_5  and  C_13 
REMARK    8  A    between atoms: C_6  and  C_15 
REMARK    9  A    between atoms: C_6  and  C_16 
REMARK   10  A    between atoms: C_7  and  C_23 
REMARK   11  A    between atoms: C_9  and  C_17 
REMARK   12  A    between atoms: C_9  and  C_18 
REMARK   13  A    between atoms: C_14  and  C_19 
REMARK   14  A    between atoms: C_14  and  C_20 
REMARK   15  A    between atoms: C_21  and  C_22 
ROOT
HETATM    1  O   UNL     1      28.312  12.539 -14.624  1.00  0.00    -0.776 OA
HETATM    2  H   UNL     1      29.143  12.508 -15.118  1.00  0.00     0.167 HD
ENDROOT
BRANCH   1   3
HETATM    3  C   UNL     1      27.309  11.671 -14.876  1.00  0.00     0.139 C 
HETATM    4  O   UNL     1      26.669  11.190 -13.953  1.00  0.00    -0.650 OA
BRANCH   3   5
HETATM    5  C   UNL     1      26.982  11.302 -16.295  1.00  0.00     0.113 C 
BRANCH   5   6
HETATM    6  C   UNL     1      25.506  10.910 -16.432  1.00  0.00     0.037 C 
BRANCH   6   7
HETATM    7  C   UNL     1      24.676  12.100 -16.848  1.00  0.00    -0.030 C 
HETATM    8  C   UNL     1      24.118  12.319 -18.058  1.00  0.00    -0.027 C 
BRANCH   8   9
HETATM    9  C   UNL     1      24.190  11.429 -19.280  1.00  0.00     0.053 C 
BRANCH   9  10
HETATM   10  C   UNL     1      24.889  12.134 -20.415  1.00  0.00    -0.027 C 
HETATM   11  C   UNL     1      26.183  11.984 -20.755  1.00  0.00    -0.027 C 
BRANCH  11  12
HETATM   12  C   UNL     1      27.156  11.041 -20.097  1.00  0.00     0.053 C 
BRANCH  12  13
HETATM   13  C   UNL     1      28.517  11.678 -19.964  1.00  0.00    -0.027 C 
HETATM   14  C   UNL     1      29.705  11.088 -20.195  1.00  0.00    -0.027 C 
BRANCH  14  15
HETATM   15  C   UNL     1      29.921   9.651 -20.588  1.00  0.00     0.053 C 
BRANCH  15  16
HETATM   16  C   UNL     1      31.366   9.292 -20.323  1.00  0.00    -0.027 C 
HETATM   17  C   UNL     1      31.848   8.191 -19.712  1.00  0.00    -0.027 C 
BRANCH  17  18
HETATM   18  C   UNL     1      31.053   7.036 -19.161  1.00  0.00     0.053 C 
BRANCH  18  19
HETATM   19  C   UNL     1      31.953   6.077 -18.417  1.00  0.00    -0.027 C 
HETATM   20  C   UNL     1      31.892   5.738 -17.112  1.00  0.00    -0.027 C 
BRANCH  20  21
HETATM   21  C   UNL     1      30.873   6.198 -16.100  1.00  0.00     0.053 C 
BRANCH  21  22
HETATM   22  C   UNL     1      31.507   7.107 -15.073  1.00  0.00    -0.027 C 
HETATM   23  C   UNL     1      31.133   8.361 -14.752  1.00  0.00    -0.031 C 
BRANCH  23  24
HETATM   24  C   UNL     1      30.003   9.145 -15.367  1.00  0.00     0.022 C 
HETATM   25  C   UNL     1      30.382   9.758 -16.709  1.00  0.00     0.009 C 
ENDBRANCH  23  24
ENDBRANCH  21  22
ENDBRANCH  20  21
ENDBRANCH  18  19
ENDBRANCH  17  18
ENDBRANCH  15  16
ENDBRANCH  14  15
ENDBRANCH  12  13
ENDBRANCH  11  12
ENDBRANCH   9  10
ENDBRANCH   8   9
ENDBRANCH   6   7
ENDBRANCH   5   6
ENDBRANCH   3   5
ENDBRANCH   1   3
TORSDOF 15
ENDMDL
MODEL 9
REMARK VINA RESULT:      -5.0      3.654      8.359
REMARK  15 active torsions:
REMARK  status: ('A' for Active; 'I' for Inactive)
REMARK    1  A    between atoms: O_1  and  C_23 
REMARK    2  A    between atoms: C_3  and  C_7 
REMARK    3  A    between atoms: C_3  and  C_8 
REMARK    4  A    between atoms: C_4  and  C_10 
REMARK    5  A    between atoms: C_4  and  C_11 
REMARK    6  A    between atoms: C_5  and  C_12 
REMARK    7  A    between atoms: C_5  and  C_13 
REMARK    8  A    between atoms: C_6  and  C_15 
REMARK    9  A    between atoms: C_6  and  C_16 
REMARK   10  A    between atoms: C_7  and  C_23 
REMARK   11  A    between atoms: C_9  and  C_17 
REMARK   12  A    between atoms: C_9  and  C_18 
REMARK   13  A    between atoms: C_14  and  C_19 
REMARK   14  A    between atoms: C_14  and  C_20 
REMARK   15  A    between atoms: C_21  and  C_22 
ROOT
HETATM    1  O   UNL     1      27.336  13.142 -20.337  1.00  0.00    -0.776 OA
HETATM    2  H   UNL     1      27.260  13.925 -19.773  1.00  0.00     0.167 HD
ENDROOT
BRANCH   1   3
HETATM    3  C   UNL     1      26.271  12.650 -21.005  1.00  0.00     0.139 C 
HETATM    4  O   UNL     1      25.939  13.140 -22.075  1.00  0.00    -0.650 OA
BRANCH   3   5
HETATM    5  C   UNL     1      25.498  11.497 -20.430  1.00  0.00     0.113 C 
BRANCH   5   6
HETATM    6  C   UNL     1      25.589  11.485 -18.900  1.00  0.00     0.037 C 
BRANCH   6   7
HETATM    7  C   UNL     1      24.352  12.098 -18.289  1.00  0.00    -0.030 C 
HETATM    8  C   UNL     1      24.156  12.407 -16.989  1.00  0.00    -0.027 C 
BRANCH   8   9
HETATM    9  C   UNL     1      25.122  12.214 -15.840  1.00  0.00     0.053 C 
BRANCH   9  10
HETATM   10  C   UNL     1      24.658  11.106 -14.929  1.00  0.00    -0.027 C 
HETATM   11  C   UNL     1      24.391  11.228 -13.617  1.00  0.00    -0.027 C 
BRANCH  11  12
HETATM   12  C   UNL     1      24.451  12.511 -12.828  1.00  0.00     0.053 C 
BRANCH  12  13
HETATM   13  C   UNL     1      25.531  12.447 -11.778  1.00  0.00    -0.027 C 
HETATM   14  C   UNL     1      25.406  11.972 -10.525  1.00  0.00    -0.027 C 
BRANCH  14  15
HETATM   15  C   UNL     1      24.142  11.449  -9.897  1.00  0.00     0.053 C 
BRANCH  15  16
HETATM   16  C   UNL     1      23.912  12.184  -8.594  1.00  0.00    -0.027 C 
HETATM   17  C   UNL     1      24.728  12.244  -7.522  1.00  0.00    -0.027 C 
BRANCH  17  18
HETATM   18  C   UNL     1      26.082  11.602  -7.372  1.00  0.00     0.053 C 
BRANCH  18  19
HETATM   19  C   UNL     1      26.929  12.370  -6.385  1.00  0.00    -0.027 C 
HETATM   20  C   UNL     1      27.693  13.455  -6.627  1.00  0.00    -0.027 C 
BRANCH  20  21
HETATM   21  C   UNL     1      27.836  14.192  -7.935  1.00  0.00     0.053 C 
BRANCH  21  22
HETATM   22  C   UNL     1      28.529  13.331  -8.965  1.00  0.00    -0.027 C 
HETATM   23  C   UNL     1      28.781  13.642 -10.252  1.00  0.00    -0.031 C 
BRANCH  23  24
HETATM   24  C   UNL     1      28.408  14.920 -10.955  1.00  0.00     0.022 C 
HETATM   25  C   UNL     1      29.619  15.791 -11.264  1.00  0.00     0.009 C 
ENDBRANCH  23  24
ENDBRANCH  21  22
ENDBRANCH  20  21
ENDBRANCH  18  19
ENDBRANCH  17  18
ENDBRANCH  15  16
ENDBRANCH  14  15
ENDBRANCH  12  13
ENDBRANCH  11  12
ENDBRANCH   9  10
ENDBRANCH   8   9
ENDBRANCH   6   7
ENDBRANCH   5   6
ENDBRANCH   3   5
ENDBRANCH   1   3
TORSDOF 15
ENDMDL
MODEL 10
REMARK VINA RESULT:      -5.0      5.356      8.526
REMARK  15 active torsions:
REMARK  status: ('A' for Active; 'I' for Inactive)
REMARK    1  A    between atoms: O_1  and  C_23 
REMARK    2  A    between atoms: C_3  and  C_7 
REMARK    3  A    between atoms: C_3  and  C_8 
REMARK    4  A    between atoms: C_4  and  C_10 
REMARK    5  A    between atoms: C_4  and  C_11 
REMARK    6  A    between atoms: C_5  and  C_12 
REMARK    7  A    between atoms: C_5  and  C_13 
REMARK    8  A    between atoms: C_6  and  C_15 
REMARK    9  A    between atoms: C_6  and  C_16 
REMARK   10  A    between atoms: C_7  and  C_23 
REMARK   11  A    between atoms: C_9  and  C_17 
REMARK   12  A    between atoms: C_9  and  C_18 
REMARK   13  A    between atoms: C_14  and  C_19 
REMARK   14  A    between atoms: C_14  and  C_20 
REMARK   15  A    between atoms: C_21  and  C_22 
ROOT
HETATM    1  O   UNL     1      26.594  12.694 -18.464  1.00  0.00    -0.776 OA
HETATM    2  H   UNL     1      26.513  13.657 -18.469  1.00  0.00     0.167 HD
ENDROOT
BRANCH   1   3
HETATM    3  C   UNL     1      25.512  11.895 -18.581  1.00  0.00     0.139 C 
HETATM    4  O   UNL     1      24.799  11.972 -19.571  1.00  0.00    -0.650 OA
BRANCH   3   5
HETATM    5  C   UNL     1      25.191  10.909 -17.494  1.00  0.00     0.113 C 
BRANCH   5   6
HETATM    6  C   UNL     1      25.523  11.489 -16.114  1.00  0.00     0.037 C 
BRANCH   6   7
HETATM    7  C   UNL     1      24.331  12.217 -15.541  1.00  0.00    -0.030 C 
HETATM    8  C   UNL     1      23.843  12.115 -14.287  1.00  0.00    -0.027 C 
BRANCH   8   9
HETATM    9  C   UNL     1      24.369  11.251 -13.161  1.00  0.00     0.053 C 
BRANCH   9  10
HETATM   10  C   UNL     1      24.611  12.074 -11.921  1.00  0.00    -0.027 C 
HETATM   11  C   UNL     1      25.723  12.049 -11.165  1.00  0.00    -0.027 C 
BRANCH  11  12
HETATM   12  C   UNL     1      26.957  11.233 -11.453  1.00  0.00     0.053 C 
BRANCH  12  13
HETATM   13  C   UNL     1      27.770  11.026 -10.199  1.00  0.00    -0.027 C 
HETATM   14  C   UNL     1      29.000  10.486 -10.121  1.00  0.00    -0.027 C 
BRANCH  14  15
HETATM   15  C   UNL     1      29.801   9.932 -11.269  1.00  0.00     0.053 C 
BRANCH  15  16
HETATM   16  C   UNL     1      31.266   9.968 -10.895  1.00  0.00    -0.027 C 
HETATM   17  C   UNL     1      31.963   9.060 -10.182  1.00  0.00    -0.027 C 
BRANCH  17  18
HETATM   18  C   UNL     1      31.446   7.771  -9.600  1.00  0.00     0.053 C 
BRANCH  18  19
HETATM   19  C   UNL     1      32.571   6.779  -9.417  1.00  0.00    -0.027 C 
HETATM   20  C   UNL     1      32.983   5.836 -10.289  1.00  0.00    -0.027 C 
BRANCH  20  21
HETATM   21  C   UNL     1      32.451   5.586 -11.679  1.00  0.00     0.053 C 
BRANCH  21  22
HETATM   22  C   UNL     1      33.112   6.505 -12.681  1.00  0.00    -0.027 C 
HETATM   23  C   UNL     1      32.506   7.249 -13.627  1.00  0.00    -0.031 C 
BRANCH  23  24
HETATM   24  C   UNL     1      31.028   7.315 -13.907  1.00  0.00     0.022 C 
HETATM   25  C   UNL     1      30.628   8.593 -14.633  1.00  0.00     0.009 C 
ENDBRANCH  23  24
ENDBRANCH  21  22
ENDBRANCH  20  21
ENDBRANCH  18  19
ENDBRANCH  17  18
ENDBRANCH  15  16
ENDBRANCH  14  15
ENDBRANCH  12  13
ENDBRANCH  11  12
ENDBRANCH   9  10
ENDBRANCH   8   9
ENDBRANCH   6   7
ENDBRANCH   5   6
ENDBRANCH   3   5
ENDBRANCH   1   3
TORSDOF 15
ENDMDL
MODEL 11
REMARK VINA RESULT:      -5.0      9.052     11.027
REMARK  15 active torsions:
REMARK  status: ('A' for Active; 'I' for Inactive)
REMARK    1  A    between atoms: O_1  and  C_23 
REMARK    2  A    between atoms: C_3  and  C_7 
REMARK    3  A    between atoms: C_3  and  C_8 
REMARK    4  A    between atoms: C_4  and  C_10 
REMARK    5  A    between atoms: C_4  and  C_11 
REMARK    6  A    between atoms: C_5  and  C_12 
REMARK    7  A    between atoms: C_5  and  C_13 
REMARK    8  A    between atoms: C_6  and  C_15 
REMARK    9  A    between atoms: C_6  and  C_16 
REMARK   10  A    between atoms: C_7  and  C_23 
REMARK   11  A    between atoms: C_9  and  C_17 
REMARK   12  A    between atoms: C_9  and  C_18 
REMARK   13  A    between atoms: C_14  and  C_19 
REMARK   14  A    between atoms: C_14  and  C_20 
REMARK   15  A    between atoms: C_21  and  C_22 
ROOT
HETATM    1  O   UNL     1      30.521   5.843  -7.551  1.00  0.00    -0.776 OA
HETATM    2  H   UNL     1      30.392   6.420  -6.786  1.00  0.00     0.167 HD
ENDROOT
BRANCH   1   3
HETATM    3  C   UNL     1      31.061   6.305  -8.699  1.00  0.00     0.139 C 
HETATM    4  O   UNL     1      30.707   5.840  -9.773  1.00  0.00    -0.650 OA
BRANCH   3   5
HETATM    5  C   UNL     1      32.095   7.394  -8.652  1.00  0.00     0.113 C 
BRANCH   5   6
HETATM    6  C   UNL     1      33.507   6.805  -8.562  1.00  0.00     0.037 C 
BRANCH   6   7
HETATM    7  C   UNL     1      33.871   6.096  -9.844  1.00  0.00    -0.030 C 
HETATM    8  C   UNL     1      34.520   6.620 -10.906  1.00  0.00    -0.027 C 
BRANCH   8   9
HETATM    9  C   UNL     1      35.035   8.035 -11.065  1.00  0.00     0.053 C 
BRANCH   9  10
HETATM   10  C   UNL     1      34.290   8.758 -12.157  1.00  0.00    -0.027 C 
HETATM   11  C   UNL     1      34.547   8.671 -13.475  1.00  0.00    -0.027 C 
BRANCH  11  12
HETATM   12  C   UNL     1      35.592   7.787 -14.104  1.00  0.00     0.053 C 
BRANCH  12  13
HETATM   13  C   UNL     1      34.955   6.604 -14.790  1.00  0.00    -0.027 C 
HETATM   14  C   UNL     1      34.626   6.512 -16.092  1.00  0.00    -0.027 C 
BRANCH  14  15
HETATM   15  C   UNL     1      34.783   7.595 -17.125  1.00  0.00     0.053 C 
BRANCH  15  16
HETATM   16  C   UNL     1      34.949   6.946 -18.481  1.00  0.00    -0.027 C 
HETATM   17  C   UNL     1      34.172   7.096 -19.573  1.00  0.00    -0.027 C 
BRANCH  17  18
HETATM   18  C   UNL     1      32.954   7.971 -19.708  1.00  0.00     0.053 C 
BRANCH  18  19
HETATM   19  C   UNL     1      31.733   7.139 -20.026  1.00  0.00    -0.027 C 
HETATM   20  C   UNL     1      31.075   6.298 -19.202  1.00  0.00    -0.027 C 
BRANCH  20  21
HETATM   21  C   UNL     1      31.372   6.032 -17.747  1.00  0.00     0.053 C 
BRANCH  21  22
HETATM   22  C   UNL     1      31.014   7.229 -16.897  1.00  0.00    -0.027 C 
HETATM   23  C   UNL     1      30.947   7.284 -15.552  1.00  0.00    -0.031 C 
BRANCH  23  24
HETATM   24  C   UNL     1      31.198   6.148 -14.595  1.00  0.00     0.022 C 
HETATM   25  C   UNL     1      31.509   6.633 -13.184  1.00  0.00     0.009 C 
ENDBRANCH  23  24
ENDBRANCH  21  22
ENDBRANCH  20  21
ENDBRANCH  18  19
ENDBRANCH  17  18
ENDBRANCH  15  16
ENDBRANCH  14  15
ENDBRANCH  12  13
ENDBRANCH  11  12
ENDBRANCH   9  10
ENDBRANCH   8   9
ENDBRANCH   6   7
ENDBRANCH   5   6
ENDBRANCH   3   5
ENDBRANCH   1   3
TORSDOF 15
ENDMDL
MODEL 12
REMARK VINA RESULT:      -5.0      8.167      9.788
REMARK  15 active torsions:
REMARK  status: ('A' for Active; 'I' for Inactive)
REMARK    1  A    between atoms: O_1  and  C_23 
REMARK    2  A    between atoms: C_3  and  C_7 
REMARK    3  A    between atoms: C_3  and  C_8 
REMARK    4  A    between atoms: C_4  and  C_10 
REMARK    5  A    between atoms: C_4  and  C_11 
REMARK    6  A    between atoms: C_5  and  C_12 
REMARK    7  A    between atoms: C_5  and  C_13 
REMARK    8  A    between atoms: C_6  and  C_15 
REMARK    9  A    between atoms: C_6  and  C_16 
REMARK   10  A    between atoms: C_7  and  C_23 
REMARK   11  A    between atoms: C_9  and  C_17 
REMARK   12  A    between atoms: C_9  and  C_18 
REMARK   13  A    between atoms: C_14  and  C_19 
REMARK   14  A    between atoms: C_14  and  C_20 
REMARK   15  A    between atoms: C_21  and  C_22 
ROOT
HETATM    1  O   UNL     1      28.394  10.326 -10.189  1.00  0.00    -0.776 OA
HETATM    2  H   UNL     1      27.508  10.026 -10.434  1.00  0.00     0.167 HD
ENDROOT
BRANCH   1   3
HETATM    3  C   UNL     1      29.492   9.878 -10.833  1.00  0.00     0.139 C 
HETATM    4  O   UNL     1      29.563   9.956 -12.051  1.00  0.00    -0.650 OA
BRANCH   3   5
HETATM    5  C   UNL     1      30.628   9.286 -10.047  1.00  0.00     0.113 C 
BRANCH   5   6
HETATM    6  C   UNL     1      31.050   7.933 -10.631  1.00  0.00     0.037 C 
BRANCH   6   7
HETATM    7  C   UNL     1      31.405   6.965  -9.528  1.00  0.00    -0.030 C 
HETATM    8  C   UNL     1      32.369   6.020  -9.555  1.00  0.00    -0.027 C 
BRANCH   8   9
HETATM    9  C   UNL     1      33.319   5.705 -10.691  1.00  0.00     0.053 C 
BRANCH   9  10
HETATM   10  C   UNL     1      34.628   6.432 -10.513  1.00  0.00    -0.027 C 
HETATM   11  C   UNL     1      35.111   7.390 -11.324  1.00  0.00    -0.027 C 
BRANCH  11  12
HETATM   12  C   UNL     1      34.403   7.955 -12.528  1.00  0.00     0.053 C 
BRANCH  12  13
HETATM   13  C   UNL     1      34.681   7.123 -13.755  1.00  0.00    -0.027 C 
HETATM   14  C   UNL     1      33.800   6.352 -14.419  1.00  0.00    -0.027 C 
BRANCH  14  15
HETATM   15  C   UNL     1      32.361   6.123 -14.041  1.00  0.00     0.053 C 
BRANCH  15  16
HETATM   16  C   UNL     1      31.515   7.187 -14.703  1.00  0.00    -0.027 C 
HETATM   17  C   UNL     1      30.878   7.120 -15.890  1.00  0.00    -0.027 C 
BRANCH  17  18
HETATM   18  C   UNL     1      30.842   5.950 -16.837  1.00  0.00     0.053 C 
BRANCH  18  19
HETATM   19  C   UNL     1      31.228   6.382 -18.233  1.00  0.00    -0.027 C 
HETATM   20  C   UNL     1      32.472   6.553 -18.724  1.00  0.00    -0.027 C 
BRANCH  20  21
HETATM   21  C   UNL     1      33.776   6.298 -18.009  1.00  0.00     0.053 C 
BRANCH  21  22
HETATM   22  C   UNL     1      34.773   7.396 -18.300  1.00  0.00    -0.027 C 
HETATM   23  C   UNL     1      34.833   8.615 -17.730  1.00  0.00    -0.031 C 
BRANCH  23  24
HETATM   24  C   UNL     1      33.899   9.162 -16.681  1.00  0.00     0.022 C 
HETATM   25  C   UNL     1      34.419  10.447 -16.051  1.00  0.00     0.009 C 
ENDBRANCH  23  24
ENDBRANCH  21  22
ENDBRANCH  20  21
ENDBRANCH  18  19
ENDBRANCH  17  18
ENDBRANCH  15  16
ENDBRANCH  14  15
ENDBRANCH  12  13
ENDBRANCH  11  12
ENDBRANCH   9  10
ENDBRANCH   8   9
ENDBRANCH   6   7
ENDBRANCH   5   6
ENDBRANCH   3   5
ENDBRANCH   1   3
TORSDOF 15
ENDMDL
MODEL 13
REMARK VINA RESULT:      -4.9      2.336      4.329
REMARK  15 active torsions:
REMARK  status: ('A' for Active; 'I' for Inactive)
REMARK    1  A    between atoms: O_1  and  C_23 
REMARK    2  A    between atoms: C_3  and  C_7 
REMARK    3  A    between atoms: C_3  and  C_8 
REMARK    4  A    between atoms: C_4  and  C_10 
REMARK    5  A    between atoms: C_4  and  C_11 
REMARK    6  A    between atoms: C_5  and  C_12 
REMARK    7  A    between atoms: C_5  and  C_13 
REMARK    8  A    between atoms: C_6  and  C_15 
REMARK    9  A    between atoms: C_6  and  C_16 
REMARK   10  A    between atoms: C_7  and  C_23 
REMARK   11  A    between atoms: C_9  and  C_17 
REMARK   12  A    between atoms: C_9  and  C_18 
REMARK   13  A    between atoms: C_14  and  C_19 
REMARK   14  A    between atoms: C_14  and  C_20 
REMARK   15  A    between atoms: C_21  and  C_22 
ROOT
HETATM    1  O   UNL     1      31.926  16.746 -12.496  1.00  0.00    -0.776 OA
HETATM    2  H   UNL     1      32.647  17.327 -12.218  1.00  0.00     0.167 HD
ENDROOT
BRANCH   1   3
HETATM    3  C   UNL     1      30.673  16.902 -12.018  1.00  0.00     0.139 C 
HETATM    4  O   UNL     1      30.488  17.047 -10.818  1.00  0.00    -0.650 OA
BRANCH   3   5
HETATM    5  C   UNL     1      29.507  16.902 -12.966  1.00  0.00     0.113 C 
BRANCH   5   6
HETATM    6  C   UNL     1      29.890  16.257 -14.303  1.00  0.00     0.037 C 
BRANCH   6   7
HETATM    7  C   UNL     1      29.655  17.218 -15.444  1.00  0.00    -0.030 C 
HETATM    8  C   UNL     1      28.944  16.987 -16.567  1.00  0.00    -0.027 C 
BRANCH   8   9
HETATM    9  C   UNL     1      28.215  15.717 -16.952  1.00  0.00     0.053 C 
BRANCH   9  10
HETATM   10  C   UNL     1      29.067  14.861 -17.854  1.00  0.00    -0.027 C 
HETATM   11  C   UNL     1      29.137  13.518 -17.827  1.00  0.00    -0.027 C 
BRANCH  11  12
HETATM   12  C   UNL     1      28.330  12.619 -16.927  1.00  0.00     0.053 C 
BRANCH  12  13
HETATM   13  C   UNL     1      29.048  12.381 -15.622  1.00  0.00    -0.027 C 
HETATM   14  C   UNL     1      28.617  12.728 -14.394  1.00  0.00    -0.027 C 
BRANCH  14  15
HETATM   15  C   UNL     1      27.346  13.471 -14.077  1.00  0.00     0.053 C 
BRANCH  15  16
HETATM   16  C   UNL     1      26.519  12.629 -13.132  1.00  0.00    -0.027 C 
HETATM   17  C   UNL     1      25.320  12.058 -13.363  1.00  0.00    -0.027 C 
BRANCH  17  18
HETATM   18  C   UNL     1      24.520  12.108 -14.638  1.00  0.00     0.053 C 
BRANCH  18  19
HETATM   19  C   UNL     1      25.113  11.185 -15.677  1.00  0.00    -0.027 C 
HETATM   20  C   UNL     1      25.048  11.308 -17.018  1.00  0.00    -0.027 C 
BRANCH  20  21
HETATM   21  C   UNL     1      24.410  12.431 -17.799  1.00  0.00     0.053 C 
BRANCH  21  22
HETATM   22  C   UNL     1      23.965  11.954 -19.161  1.00  0.00    -0.027 C 
HETATM   23  C   UNL     1      24.705  11.892 -20.285  1.00  0.00    -0.031 C 
BRANCH  23  24
HETATM   24  C   UNL     1      26.146  12.306 -20.435  1.00  0.00     0.022 C 
HETATM   25  C   UNL     1      27.110  11.143 -20.240  1.00  0.00     0.009 C 
ENDBRANCH  23  24
ENDBRANCH  21  22
ENDBRANCH  20  21
ENDBRANCH  18  19
ENDBRANCH  17  18
ENDBRANCH  15  16
ENDBRANCH  14  15
ENDBRANCH  12  13
ENDBRANCH  11  12
ENDBRANCH   9  10
ENDBRANCH   8   9
ENDBRANCH   6   7
ENDBRANCH   5   6
ENDBRANCH   3   5
ENDBRANCH   1   3
TORSDOF 15
ENDMDL
MODEL 14
REMARK VINA RESULT:      -4.9      4.143      6.555
REMARK  15 active torsions:
REMARK  status: ('A' for Active; 'I' for Inactive)
REMARK    1  A    between atoms: O_1  and  C_23 
REMARK    2  A    between atoms: C_3  and  C_7 
REMARK    3  A    between atoms: C_3  and  C_8 
REMARK    4  A    between atoms: C_4  and  C_10 
REMARK    5  A    between atoms: C_4  and  C_11 
REMARK    6  A    between atoms: C_5  and  C_12 
REMARK    7  A    between atoms: C_5  and  C_13 
REMARK    8  A    between atoms: C_6  and  C_15 
REMARK    9  A    between atoms: C_6  and  C_16 
REMARK   10  A    between atoms: C_7  and  C_23 
REMARK   11  A    between atoms: C_9  and  C_17 
REMARK   12  A    between atoms: C_9  and  C_18 
REMARK   13  A    between atoms: C_14  and  C_19 
REMARK   14  A    between atoms: C_14  and  C_20 
REMARK   15  A    between atoms: C_21  and  C_22 
ROOT
HETATM    1  O   UNL     1      26.298  13.276  -8.578  1.00  0.00    -0.776 OA
HETATM    2  H   UNL     1      26.234  13.374  -9.538  1.00  0.00     0.167 HD
ENDROOT
BRANCH   1   3
HETATM    3  C   UNL     1      25.451  12.477  -7.894  1.00  0.00     0.139 C 
HETATM    4  O   UNL     1      25.154  12.746  -6.739  1.00  0.00    -0.650 OA
BRANCH   3   5
HETATM    5  C   UNL     1      24.873  11.260  -8.558  1.00  0.00     0.113 C 
BRANCH   5   6
HETATM    6  C   UNL     1      24.308  11.607  -9.940  1.00  0.00     0.037 C 
BRANCH   6   7
HETATM    7  C   UNL     1      25.197  11.061 -11.031  1.00  0.00    -0.030 C 
HETATM    8  C   UNL     1      25.198  11.420 -12.333  1.00  0.00    -0.027 C 
BRANCH   8   9
HETATM    9  C   UNL     1      24.315  12.448 -13.007  1.00  0.00     0.053 C 
BRANCH   9  10
HETATM   10  C   UNL     1      23.914  11.989 -14.386  1.00  0.00    -0.027 C 
HETATM   11  C   UNL     1      24.710  11.971 -15.470  1.00  0.00    -0.027 C 
BRANCH  11  12
HETATM   12  C   UNL     1      26.167  12.353 -15.491  1.00  0.00     0.053 C 
BRANCH  12  13
HETATM   13  C   UNL     1      26.564  12.888 -16.844  1.00  0.00    -0.027 C 
HETATM   14  C   UNL     1      27.523  12.398 -17.652  1.00  0.00    -0.027 C 
BRANCH  14  15
HETATM   15  C   UNL     1      28.433  11.238 -17.346  1.00  0.00     0.053 C 
BRANCH  15  16
HETATM   16  C   UNL     1      29.758  11.472 -18.036  1.00  0.00    -0.027 C 
HETATM   17  C   UNL     1      30.083  11.208 -19.318  1.00  0.00    -0.027 C 
BRANCH  17  18
HETATM   18  C   UNL     1      29.188  10.631 -20.383  1.00  0.00     0.053 C 
BRANCH  18  19
HETATM   19  C   UNL     1      28.850  11.676 -21.420  1.00  0.00    -0.027 C 
HETATM   20  C   UNL     1      27.657  12.267 -21.632  1.00  0.00    -0.027 C 
BRANCH  20  21
HETATM   21  C   UNL     1      26.387  12.063 -20.843  1.00  0.00     0.053 C 
BRANCH  21  22
HETATM   22  C   UNL     1      25.612  10.877 -21.369  1.00  0.00    -0.027 C 
HETATM   23  C   UNL     1      24.758  10.859 -22.411  1.00  0.00    -0.031 C 
BRANCH  23  24
HETATM   24  C   UNL     1      24.371  12.032 -23.274  1.00  0.00     0.022 C 
HETATM   25  C   UNL     1      25.093  12.032 -24.615  1.00  0.00     0.009 C 
ENDBRANCH  23  24
ENDBRANCH  21  22
ENDBRANCH  20  21
ENDBRANCH  18  19
ENDBRANCH  17  18
ENDBRANCH  15  16
ENDBRANCH  14  15
ENDBRANCH  12  13
ENDBRANCH  11  12
ENDBRANCH   9  10
ENDBRANCH   8   9
ENDBRANCH   6   7
ENDBRANCH   5   6
ENDBRANCH   3   5
ENDBRANCH   1   3
TORSDOF 15
ENDMDL
MODEL 15
REMARK VINA RESULT:      -4.8      3.128      5.439
REMARK  15 active torsions:
REMARK  status: ('A' for Active; 'I' for Inactive)
REMARK    1  A    between atoms: O_1  and  C_23 
REMARK    2  A    between atoms: C_3  and  C_7 
REMARK    3  A    between atoms: C_3  and  C_8 
REMARK    4  A    between atoms: C_4  and  C_10 
REMARK    5  A    between atoms: C_4  and  C_11 
REMARK    6  A    between atoms: C_5  and  C_12 
REMARK    7  A    between atoms: C_5  and  C_13 
REMARK    8  A    between atoms: C_6  and  C_15 
REMARK    9  A    between atoms: C_6  and  C_16 
REMARK   10  A    between atoms: C_7  and  C_23 
REMARK   11  A    between atoms: C_9  and  C_17 
REMARK   12  A    between atoms: C_9  and  C_18 
REMARK   13  A    between atoms: C_14  and  C_19 
REMARK   14  A    between atoms: C_14  and  C_20 
REMARK   15  A    between atoms: C_21  and  C_22 
ROOT
HETATM    1  O   UNL     1      28.535  15.935 -16.763  1.00  0.00    -0.776 OA
HETATM    2  H   UNL     1      28.812  16.346 -15.932  1.00  0.00     0.167 HD
ENDROOT
BRANCH   1   3
HETATM    3  C   UNL     1      28.489  14.592 -16.902  1.00  0.00     0.139 C 
HETATM    4  O   UNL     1      29.384  13.898 -16.443  1.00  0.00    -0.650 OA
BRANCH   3   5
HETATM    5  C   UNL     1      27.332  13.957 -17.620  1.00  0.00     0.113 C 
BRANCH   5   6
HETATM    6  C   UNL     1      27.649  12.503 -17.988  1.00  0.00     0.037 C 
BRANCH   6   7
HETATM    7  C   UNL     1      26.442  11.833 -18.598  1.00  0.00    -0.030 C 
HETATM    8  C   UNL     1      25.447  11.198 -17.943  1.00  0.00    -0.027 C 
BRANCH   8   9
HETATM    9  C   UNL     1      25.303  11.007 -16.448  1.00  0.00     0.053 C 
BRANCH   9  10
HETATM   10  C   UNL     1      24.438  12.087 -15.849  1.00  0.00    -0.027 C 
HETATM   11  C   UNL     1      24.101  12.193 -14.551  1.00  0.00    -0.027 C 
BRANCH  11  12
HETATM   12  C   UNL     1      24.574  11.284 -13.448  1.00  0.00     0.053 C 
BRANCH  12  13
HETATM   13  C   UNL     1      24.336  11.909 -12.096  1.00  0.00    -0.027 C 
HETATM   14  C   UNL     1      25.275  12.285 -11.208  1.00  0.00    -0.027 C 
BRANCH  14  15
HETATM   15  C   UNL     1      26.763  12.111 -11.363  1.00  0.00     0.053 C 
BRANCH  15  16
HETATM   16  C   UNL     1      27.287  13.223 -12.244  1.00  0.00    -0.027 C 
HETATM   17  C   UNL     1      28.272  13.158 -13.163  1.00  0.00    -0.027 C 
BRANCH  17  18
HETATM   18  C   UNL     1      29.077  11.945 -13.549  1.00  0.00     0.053 C 
BRANCH  18  19
HETATM   19  C   UNL     1      28.319  11.094 -14.540  1.00  0.00    -0.027 C 
HETATM   20  C   UNL     1      28.827  10.368 -15.557  1.00  0.00    -0.027 C 
BRANCH  20  21
HETATM   21  C   UNL     1      30.284  10.190 -15.909  1.00  0.00     0.053 C 
BRANCH  21  22
HETATM   22  C   UNL     1      30.865   8.988 -15.203  1.00  0.00    -0.027 C 
HETATM   23  C   UNL     1      31.135   7.780 -15.737  1.00  0.00    -0.031 C 
BRANCH  23  24
HETATM   24  C   UNL     1      30.896   7.357 -17.163  1.00  0.00     0.022 C 
HETATM   25  C   UNL     1      30.224   5.993 -17.261  1.00  0.00     0.009 C 
ENDBRANCH  23  24
ENDBRANCH  21  22
ENDBRANCH  20  21
ENDBRANCH  18  19
ENDBRANCH  17  18
ENDBRANCH  15  16
ENDBRANCH  14  15
ENDBRANCH  12  13
ENDBRANCH  11  12
ENDBRANCH   9  10
ENDBRANCH   8   9
ENDBRANCH   6   7
ENDBRANCH   5   6
ENDBRANCH   3   5
ENDBRANCH   1   3
TORSDOF 15
ENDMDL
MODEL 16
REMARK VINA RESULT:      -4.8      3.785      8.542
REMARK  15 active torsions:
REMARK  status: ('A' for Active; 'I' for Inactive)
REMARK    1  A    between atoms: O_1  and  C_23 
REMARK    2  A    between atoms: C_3  and  C_7 
REMARK    3  A    between atoms: C_3  and  C_8 
REMARK    4  A    between atoms: C_4  and  C_10 
REMARK    5  A    between atoms: C_4  and  C_11 
REMARK    6  A    between atoms: C_5  and  C_12 
REMARK    7  A    between atoms: C_5  and  C_13 
REMARK    8  A    between atoms: C_6  and  C_15 
REMARK    9  A    between atoms: C_6  and  C_16 
REMARK   10  A    between atoms: C_7  and  C_23 
REMARK   11  A    between atoms: C_9  and  C_17 
REMARK   12  A    between atoms: C_9  and  C_18 
REMARK   13  A    between atoms: C_14  and  C_19 
REMARK   14  A    between atoms: C_14  and  C_20 
REMARK   15  A    between atoms: C_21  and  C_22 
ROOT
HETATM    1  O   UNL     1      28.642  17.791 -15.892  1.00  0.00    -0.776 OA
HETATM    2  H   UNL     1      28.762  18.646 -16.327  1.00  0.00     0.167 HD
ENDROOT
BRANCH   1   3
HETATM    3  C   UNL     1      29.307  16.691 -16.305  1.00  0.00     0.139 C 
HETATM    4  O   UNL     1      30.529  16.672 -16.289  1.00  0.00    -0.650 OA
BRANCH   3   5
HETATM    5  C   UNL     1      28.540  15.490 -16.781  1.00  0.00     0.113 C 
BRANCH   5   6
HETATM    6  C   UNL     1      28.138  14.595 -15.603  1.00  0.00     0.037 C 
BRANCH   6   7
HETATM    7  C   UNL     1      28.674  13.196 -15.790  1.00  0.00    -0.030 C 
HETATM    8  C   UNL     1      28.147  12.221 -16.561  1.00  0.00    -0.027 C 
BRANCH   8   9
HETATM    9  C   UNL     1      26.901  12.296 -17.417  1.00  0.00     0.053 C 
BRANCH   9  10
HETATM   10  C   UNL     1      26.005  11.110 -17.164  1.00  0.00    -0.027 C 
HETATM   11  C   UNL     1      24.844  11.134 -16.483  1.00  0.00    -0.027 C 
BRANCH  11  12
HETATM   12  C   UNL     1      24.199  12.363 -15.899  1.00  0.00     0.053 C 
BRANCH  12  13
HETATM   13  C   UNL     1      23.665  12.084 -14.516  1.00  0.00    -0.027 C 
HETATM   14  C   UNL     1      24.364  12.108 -13.365  1.00  0.00    -0.027 C 
BRANCH  14  15
HETATM   15  C   UNL     1      25.840  12.371 -13.229  1.00  0.00     0.053 C 
BRANCH  15  16
HETATM   16  C   UNL     1      26.445  11.283 -12.370  1.00  0.00    -0.027 C 
HETATM   17  C   UNL     1      26.529  11.240 -11.025  1.00  0.00    -0.027 C 
BRANCH  17  18
HETATM   18  C   UNL     1      26.019  12.268 -10.049  1.00  0.00     0.053 C 
BRANCH  18  19
HETATM   19  C   UNL     1      24.669  11.863  -9.506  1.00  0.00    -0.027 C 
HETATM   20  C   UNL     1      24.398  11.316  -8.303  1.00  0.00    -0.027 C 
BRANCH  20  21
HETATM   21  C   UNL     1      25.377  11.031  -7.192  1.00  0.00     0.053 C 
BRANCH  21  22
HETATM   22  C   UNL     1      24.762  11.326  -5.843  1.00  0.00    -0.027 C 
HETATM   23  C   UNL     1      25.329  11.989  -4.816  1.00  0.00    -0.031 C 
BRANCH  23  24
HETATM   24  C   UNL     1      26.718  12.570  -4.781  1.00  0.00     0.022 C 
HETATM   25  C   UNL     1      27.696  11.698  -4.005  1.00  0.00     0.009 C 
ENDBRANCH  23  24
ENDBRANCH  21  22
ENDBRANCH  20  21
ENDBRANCH  18  19
ENDBRANCH  17  18
ENDBRANCH  15  16
ENDBRANCH  14  15
ENDBRANCH  12  13
ENDBRANCH  11  12
ENDBRANCH   9  10
ENDBRANCH   8   9
ENDBRANCH   6   7
ENDBRANCH   5   6
ENDBRANCH   3   5
ENDBRANCH   1   3
TORSDOF 15
ENDMDL
MODEL 17
REMARK VINA RESULT:      -4.8      9.549     13.192
REMARK  15 active torsions:
REMARK  status: ('A' for Active; 'I' for Inactive)
REMARK    1  A    between atoms: O_1  and  C_23 
REMARK    2  A    between atoms: C_3  and  C_7 
REMARK    3  A    between atoms: C_3  and  C_8 
REMARK    4  A    between atoms: C_4  and  C_10 
REMARK    5  A    between atoms: C_4  and  C_11 
REMARK    6  A    between atoms: C_5  and  C_12 
REMARK    7  A    between atoms: C_5  and  C_13 
REMARK    8  A    between atoms: C_6  and  C_15 
REMARK    9  A    between atoms: C_6  and  C_16 
REMARK   10  A    between atoms: C_7  and  C_23 
REMARK   11  A    between atoms: C_9  and  C_17 
REMARK   12  A    between atoms: C_9  and  C_18 
REMARK   13  A    between atoms: C_14  and  C_19 
REMARK   14  A    between atoms: C_14  and  C_20 
REMARK   15  A    between atoms: C_21  and  C_22 
ROOT
HETATM    1  O   UNL     1      30.736   5.611 -13.001  1.00  0.00    -0.776 OA
HETATM    2  H   UNL     1      30.653   5.903 -12.083  1.00  0.00     0.167 HD
ENDROOT
BRANCH   1   3
HETATM    3  C   UNL     1      31.104   6.464 -13.981  1.00  0.00     0.139 C 
HETATM    4  O   UNL     1      30.961   6.149 -15.153  1.00  0.00    -0.650 OA
BRANCH   3   5
HETATM    5  C   UNL     1      31.686   7.803 -13.624  1.00  0.00     0.113 C 
BRANCH   5   6
HETATM    6  C   UNL     1      33.060   7.993 -14.277  1.00  0.00     0.037 C 
BRANCH   6   7
HETATM    7  C   UNL     1      34.001   6.885 -13.869  1.00  0.00    -0.030 C 
HETATM    8  C   UNL     1      34.678   6.781 -12.706  1.00  0.00    -0.027 C 
BRANCH   8   9
HETATM    9  C   UNL     1      34.656   7.744 -11.538  1.00  0.00     0.053 C 
BRANCH   9  10
HETATM   10  C   UNL     1      34.841   7.011 -10.234  1.00  0.00    -0.027 C 
HETATM   11  C   UNL     1      33.872   6.391  -9.537  1.00  0.00    -0.027 C 
BRANCH  11  12
HETATM   12  C   UNL     1      32.432   6.267  -9.963  1.00  0.00     0.053 C 
BRANCH  12  13
HETATM   13  C   UNL     1      31.595   7.363  -9.353  1.00  0.00    -0.027 C 
HETATM   14  C   UNL     1      30.760   7.247  -8.303  1.00  0.00    -0.027 C 
BRANCH  14  15
HETATM   15  C   UNL     1      30.455   5.979  -7.549  1.00  0.00     0.053 C 
BRANCH  15  16
HETATM   16  C   UNL     1      30.885   6.160  -6.110  1.00  0.00    -0.027 C 
HETATM   17  C   UNL     1      32.115   5.987  -5.585  1.00  0.00    -0.027 C 
BRANCH  17  18
HETATM   18  C   UNL     1      33.369   5.588  -6.318  1.00  0.00     0.053 C 
BRANCH  18  19
HETATM   19  C   UNL     1      34.566   6.326  -5.766  1.00  0.00    -0.027 C 
HETATM   20  C   UNL     1      34.808   7.651  -5.816  1.00  0.00    -0.027 C 
BRANCH  20  21
HETATM   21  C   UNL     1      33.909   8.719  -6.389  1.00  0.00     0.053 C 
BRANCH  21  22
HETATM   22  C   UNL     1      33.341   9.589  -5.291  1.00  0.00    -0.027 C 
HETATM   23  C   UNL     1      32.106  10.124  -5.233  1.00  0.00    -0.031 C 
BRANCH  23  24
HETATM   24  C   UNL     1      31.019   9.987  -6.268  1.00  0.00     0.022 C 
HETATM   25  C   UNL     1      29.661   9.679  -5.650  1.00  0.00     0.009 C 
ENDBRANCH  23  24
ENDBRANCH  21  22
ENDBRANCH  20  21
ENDBRANCH  18  19
ENDBRANCH  17  18
ENDBRANCH  15  16
ENDBRANCH  14  15
ENDBRANCH  12  13
ENDBRANCH  11  12
ENDBRANCH   9  10
ENDBRANCH   8   9
ENDBRANCH   6   7
ENDBRANCH   5   6
ENDBRANCH   3   5
ENDBRANCH   1   3
TORSDOF 15
ENDMDL
MODEL 18
REMARK VINA RESULT:      -4.8      1.989      6.759
REMARK  15 active torsions:
REMARK  status: ('A' for Active; 'I' for Inactive)
REMARK    1  A    between atoms: O_1  and  C_23 
REMARK    2  A    between atoms: C_3  and  C_7 
REMARK    3  A    between atoms: C_3  and  C_8 
REMARK    4  A    between atoms: C_4  and  C_10 
REMARK    5  A    between atoms: C_4  and  C_11 
REMARK    6  A    between atoms: C_5  and  C_12 
REMARK    7  A    between atoms: C_5  and  C_13 
REMARK    8  A    between atoms: C_6  and  C_15 
REMARK    9  A    between atoms: C_6  and  C_16 
REMARK   10  A    between atoms: C_7  and  C_23 
REMARK   11  A    between atoms: C_9  and  C_17 
REMARK   12  A    between atoms: C_9  and  C_18 
REMARK   13  A    between atoms: C_14  and  C_19 
REMARK   14  A    between atoms: C_14  and  C_20 
REMARK   15  A    between atoms: C_21  and  C_22 
ROOT
HETATM    1  O   UNL     1      30.956  13.220 -15.674  1.00  0.00    -0.776 OA
HETATM    2  H   UNL     1      30.242  12.634 -15.962  1.00  0.00     0.167 HD
ENDROOT
BRANCH   1   3
HETATM    3  C   UNL     1      30.964  14.531 -15.999  1.00  0.00     0.139 C 
HETATM    4  O   UNL     1      32.021  15.092 -16.252  1.00  0.00    -0.650 OA
BRANCH   3   5
HETATM    5  C   UNL     1      29.672  15.295 -16.051  1.00  0.00     0.113 C 
BRANCH   5   6
HETATM    6  C   UNL     1      29.193  15.461 -17.497  1.00  0.00     0.037 C 
BRANCH   6   7
HETATM    7  C   UNL     1      27.786  14.934 -17.656  1.00  0.00    -0.030 C 
HETATM    8  C   UNL     1      27.412  13.787 -18.260  1.00  0.00    -0.027 C 
BRANCH   8   9
HETATM    9  C   UNL     1      28.306  12.759 -18.921  1.00  0.00     0.053 C 
BRANCH   9  10
HETATM   10  C   UNL     1      28.201  12.843 -20.423  1.00  0.00    -0.027 C 
HETATM   11  C   UNL     1      27.301  12.195 -21.185  1.00  0.00    -0.027 C 
BRANCH  11  12
HETATM   12  C   UNL     1      26.195  11.311 -20.670  1.00  0.00     0.053 C 
BRANCH  12  13
HETATM   13  C   UNL     1      25.030  12.136 -20.183  1.00  0.00    -0.027 C 
HETATM   14  C   UNL     1      24.286  11.904 -19.085  1.00  0.00    -0.027 C 
BRANCH  14  15
HETATM   15  C   UNL     1      24.435  10.740 -18.142  1.00  0.00     0.053 C 
BRANCH  15  16
HETATM   16  C   UNL     1      25.538  11.057 -17.158  1.00  0.00    -0.027 C 
HETATM   17  C   UNL     1      25.443  11.734 -15.996  1.00  0.00    -0.027 C 
BRANCH  17  18
HETATM   18  C   UNL     1      24.199  12.326 -15.387  1.00  0.00     0.053 C 
BRANCH  18  19
HETATM   19  C   UNL     1      23.798  11.564 -14.146  1.00  0.00    -0.027 C 
HETATM   20  C   UNL     1      24.421  11.557 -12.950  1.00  0.00    -0.027 C 
BRANCH  20  21
HETATM   21  C   UNL     1      25.639  12.355 -12.554  1.00  0.00     0.053 C 
BRANCH  21  22
HETATM   22  C   UNL     1      26.410  11.653 -11.460  1.00  0.00    -0.027 C 
HETATM   23  C   UNL     1      26.087  11.578 -10.154  1.00  0.00    -0.031 C 
BRANCH  23  24
HETATM   24  C   UNL     1      24.886  12.200  -9.490  1.00  0.00     0.022 C 
HETATM   25  C   UNL     1      24.067  11.186  -8.701  1.00  0.00     0.009 C 
ENDBRANCH  23  24
ENDBRANCH  21  22
ENDBRANCH  20  21
ENDBRANCH  18  19
ENDBRANCH  17  18
ENDBRANCH  15  16
ENDBRANCH  14  15
ENDBRANCH  12  13
ENDBRANCH  11  12
ENDBRANCH   9  10
ENDBRANCH   8   9
ENDBRANCH   6   7
ENDBRANCH   5   6
ENDBRANCH   3   5
ENDBRANCH   1   3
TORSDOF 15
ENDMDL
MODEL 19
REMARK VINA RESULT:      -4.8      9.409     12.372
REMARK  15 active torsions:
REMARK  status: ('A' for Active; 'I' for Inactive)
REMARK    1  A    between atoms: O_1  and  C_23 
REMARK    2  A    between atoms: C_3  and  C_7 
REMARK    3  A    between atoms: C_3  and  C_8 
REMARK    4  A    between atoms: C_4  and  C_10 
REMARK    5  A    between atoms: C_4  and  C_11 
REMARK    6  A    between atoms: C_5  and  C_12 
REMARK    7  A    between atoms: C_5  and  C_13 
REMARK    8  A    between atoms: C_6  and  C_15 
REMARK    9  A    between atoms: C_6  and  C_16 
REMARK   10  A    between atoms: C_7  and  C_23 
REMARK   11  A    between atoms: C_9  and  C_17 
REMARK   12  A    between atoms: C_9  and  C_18 
REMARK   13  A    between atoms: C_14  and  C_19 
REMARK   14  A    between atoms: C_14  and  C_20 
REMARK   15  A    between atoms: C_21  and  C_22 
ROOT
HETATM    1  O   UNL     1      32.344   8.077 -13.680  1.00  0.00    -0.776 OA
HETATM    2  H   UNL     1      31.740   8.716 -14.082  1.00  0.00     0.167 HD
ENDROOT
BRANCH   1   3
HETATM    3  C   UNL     1      32.086   6.752 -13.709  1.00  0.00     0.139 C 
HETATM    4  O   UNL     1      32.930   5.972 -14.128  1.00  0.00    -0.650 OA
BRANCH   3   5
HETATM    5  C   UNL     1      30.762   6.239 -13.219  1.00  0.00     0.113 C 
BRANCH   5   6
HETATM    6  C   UNL     1      30.535   6.622 -11.753  1.00  0.00     0.037 C 
BRANCH   6   7
HETATM    7  C   UNL     1      31.557   5.955 -10.864  1.00  0.00    -0.030 C 
HETATM    8  C   UNL     1      31.660   6.063  -9.522  1.00  0.00    -0.027 C 
BRANCH   8   9
HETATM    9  C   UNL     1      30.781   6.872  -8.592  1.00  0.00     0.053 C 
BRANCH   9  10
HETATM   10  C   UNL     1      30.327   6.038  -7.421  1.00  0.00    -0.027 C 
HETATM   11  C   UNL     1      30.885   6.034  -6.197  1.00  0.00    -0.027 C 
BRANCH  11  12
HETATM   12  C   UNL     1      32.031   6.906  -5.755  1.00  0.00     0.053 C 
BRANCH  12  13
HETATM   13  C   UNL     1      33.336   6.154  -5.821  1.00  0.00    -0.027 C 
HETATM   14  C   UNL     1      34.380   6.426  -6.627  1.00  0.00    -0.027 C 
BRANCH  14  15
HETATM   15  C   UNL     1      34.438   7.513  -7.666  1.00  0.00     0.053 C 
BRANCH  15  16
HETATM   16  C   UNL     1      34.916   6.909  -8.968  1.00  0.00    -0.027 C 
HETATM   17  C   UNL     1      35.861   7.384  -9.805  1.00  0.00    -0.027 C 
BRANCH  17  18
HETATM   18  C   UNL     1      36.686   8.631  -9.630  1.00  0.00     0.053 C 
BRANCH  18  19
HETATM   19  C   UNL     1      36.598   9.505 -10.859  1.00  0.00    -0.027 C 
HETATM   20  C   UNL     1      35.621  10.380 -11.176  1.00  0.00    -0.027 C 
BRANCH  20  21
HETATM   21  C   UNL     1      34.411  10.732 -10.348  1.00  0.00     0.053 C 
BRANCH  21  22
HETATM   22  C   UNL     1      33.250   9.823 -10.678  1.00  0.00    -0.027 C 
HETATM   23  C   UNL     1      32.024   9.830 -10.119  1.00  0.00    -0.031 C 
BRANCH  23  24
HETATM   24  C   UNL     1      31.546  10.740  -9.018  1.00  0.00     0.022 C 
HETATM   25  C   UNL     1      31.871  10.199  -7.631  1.00  0.00     0.009 C 
ENDBRANCH  23  24
ENDBRANCH  21  22
ENDBRANCH  20  21
ENDBRANCH  18  19
ENDBRANCH  17  18
ENDBRANCH  15  16
ENDBRANCH  14  15
ENDBRANCH  12  13
ENDBRANCH  11  12
ENDBRANCH   9  10
ENDBRANCH   8   9
ENDBRANCH   6   7
ENDBRANCH   5   6
ENDBRANCH   3   5
ENDBRANCH   1   3
TORSDOF 15
ENDMDL
MODEL 20
REMARK VINA RESULT:      -4.7     37.680     39.192
REMARK  15 active torsions:
REMARK  status: ('A' for Active; 'I' for Inactive)
REMARK    1  A    between atoms: O_1  and  C_23 
REMARK    2  A    between atoms: C_3  and  C_7 
REMARK    3  A    between atoms: C_3  and  C_8 
REMARK    4  A    between atoms: C_4  and  C_10 
REMARK    5  A    between atoms: C_4  and  C_11 
REMARK    6  A    between atoms: C_5  and  C_12 
REMARK    7  A    between atoms: C_5  and  C_13 
REMARK    8  A    between atoms: C_6  and  C_15 
REMARK    9  A    between atoms: C_6  and  C_16 
REMARK   10  A    between atoms: C_7  and  C_23 
REMARK   11  A    between atoms: C_9  and  C_17 
REMARK   12  A    between atoms: C_9  and  C_18 
REMARK   13  A    between atoms: C_14  and  C_19 
REMARK   14  A    between atoms: C_14  and  C_20 
REMARK   15  A    between atoms: C_21  and  C_22 
ROOT
HETATM    1  O   UNL     1      48.015 -16.607 -18.876  1.00  0.00    -0.776 OA
HETATM    2  H   UNL     1      47.595 -16.026 -19.525  1.00  0.00     0.167 HD
ENDROOT
BRANCH   1   3
HETATM    3  C   UNL     1      47.675 -17.909 -18.772  1.00  0.00     0.139 C 
HETATM    4  O   UNL     1      46.625 -18.309 -19.256  1.00  0.00    -0.650 OA
BRANCH   3   5
HETATM    5  C   UNL     1      48.592 -18.866 -18.065  1.00  0.00     0.113 C 
BRANCH   5   6
HETATM    6  C   UNL     1      48.858 -18.407 -16.627  1.00  0.00     0.037 C 
BRANCH   6   7
HETATM    7  C   UNL     1      48.333 -19.420 -15.638  1.00  0.00    -0.030 C 
HETATM    8  C   UNL     1      48.464 -19.388 -14.295  1.00  0.00    -0.027 C 
BRANCH   8   9
HETATM    9  C   UNL     1      49.166 -18.336 -13.462  1.00  0.00     0.053 C 
BRANCH   9  10
HETATM   10  C   UNL     1      48.215 -17.716 -12.470  1.00  0.00    -0.027 C 
HETATM   11  C   UNL     1      48.115 -18.043 -11.169  1.00  0.00    -0.027 C 
BRANCH  11  12
HETATM   12  C   UNL     1      48.975 -19.050 -10.451  1.00  0.00     0.053 C 
BRANCH  12  13
HETATM   13  C   UNL     1      49.533 -18.469  -9.175  1.00  0.00    -0.027 C 
HETATM   14  C   UNL     1      48.954 -18.498  -7.960  1.00  0.00    -0.027 C 
BRANCH  14  15
HETATM   15  C   UNL     1      47.602 -19.075  -7.635  1.00  0.00     0.053 C 
BRANCH  15  16
HETATM   16  C   UNL     1      47.756 -20.563  -7.413  1.00  0.00    -0.027 C 
HETATM   17  C   UNL     1      47.189 -21.568  -8.112  1.00  0.00    -0.027 C 
BRANCH  17  18
HETATM   18  C   UNL     1      46.275 -21.445  -9.303  1.00  0.00     0.053 C 
BRANCH  18  19
HETATM   19  C   UNL     1      47.044 -21.645 -10.588  1.00  0.00    -0.027 C 
HETATM   20  C   UNL     1      46.573 -21.559 -11.849  1.00  0.00    -0.027 C 
BRANCH  20  21
HETATM   21  C   UNL     1      45.174 -21.186 -12.273  1.00  0.00     0.053 C 
BRANCH  21  22
HETATM   22  C   UNL     1      45.122 -19.756 -12.758  1.00  0.00    -0.027 C 
HETATM   23  C   UNL     1      44.614 -18.692 -12.105  1.00  0.00    -0.031 C 
BRANCH  23  24
HETATM   24  C   UNL     1      43.963 -18.700 -10.747  1.00  0.00     0.022 C 
HETATM   25  C   UNL     1      44.804 -17.989  -9.694  1.00  0.00     0.009 C 
ENDBRANCH  23  24
ENDBRANCH  21  22
ENDBRANCH  20  21
ENDBRANCH  18  19
ENDBRANCH  17  18
ENDBRANCH  15  16
ENDBRANCH  14  15
ENDBRANCH  12  13
ENDBRANCH  11  12
ENDBRANCH   9  10
ENDBRANCH   8   9
ENDBRANCH   6   7
ENDBRANCH   5   6
ENDBRANCH   3   5
ENDBRANCH   1   3
TORSDOF 15
ENDMDL
