MODEL 1
REMARK VINA RESULT:      -5.7      0.000      0.000
REMARK  14 active torsions:
REMARK  status: ('A' for Active; 'I' for Inactive)
REMARK    1  A    between atoms: O_1  and  C_18 
REMARK    2  A    between atoms: C_3  and  C_4 
REMARK    3  A    between atoms: C_3  and  C_5 
REMARK    4  A    between atoms: C_4  and  C_6 
REMARK    5  A    between atoms: C_5  and  C_7 
REMARK    6  A    between atoms: C_6  and  C_8 
REMARK    7  A    between atoms: C_7  and  C_13 
REMARK    8  A    between atoms: C_8  and  C_15 
REMARK    9  A    between atoms: C_9  and  C_10 
REMARK   10  A    between atoms: C_9  and  C_11 
REMARK   11  A    between atoms: C_10  and  C_12 
REMARK   12  A    between atoms: C_11  and  C_14 
REMARK   13  A    between atoms: C_12  and  C_16 
REMARK   14  A    between atoms: C_15  and  C_18 
ROOT
HETATM    1  O   UNL     1      25.998  11.243 -20.723  1.00  0.00    -0.776 OA
HETATM    2  H   UNL     1      26.176  10.543 -21.368  1.00  0.00     0.167 HD
ENDROOT
BRANCH   1   3
HETATM    3  C   UNL     1      24.971  12.104 -20.886  1.00  0.00     0.139 C 
HETATM    4  O   UNL     1      24.860  12.728 -21.933  1.00  0.00    -0.650 OA
BRANCH   3   5
HETATM    5  C   UNL     1      23.978  12.275 -19.766  1.00  0.00     0.110 C 
BRANCH   5   6
HETATM    6  C   UNL     1      24.235  11.332 -18.581  1.00  0.00     0.010 C 
BRANCH   6   7
HETATM    7  C   UNL     1      24.431  12.122 -17.281  1.00  0.00     0.001 C 
BRANCH   7   8
HETATM    8  C   UNL     1      24.722  11.183 -16.105  1.00  0.00     0.000 C 
BRANCH   8   9
HETATM    9  C   UNL     1      25.054  11.977 -14.836  1.00  0.00     0.000 C 
BRANCH   9  10
HETATM   10  C   UNL     1      24.329  11.396 -13.617  1.00  0.00     0.004 C 
BRANCH  10  11
HETATM   11  C   UNL     1      24.384  12.372 -12.430  1.00  0.00     0.027 C 
BRANCH  11  12
HETATM   12  C   UNL     1      25.738  12.384 -11.764  1.00  0.00    -0.031 C 
HETATM   13  C   UNL     1      26.007  11.941 -10.521  1.00  0.00    -0.031 C 
BRANCH  13  14
HETATM   14  C   UNL     1      25.012  11.313  -9.577  1.00  0.00     0.027 C 
BRANCH  14  15
HETATM   15  C   UNL     1      24.212  12.398  -8.851  1.00  0.00     0.004 C 
BRANCH  15  16
HETATM   16  C   UNL     1      24.253  12.190  -7.332  1.00  0.00     0.000 C 
BRANCH  16  17
HETATM   17  C   UNL     1      25.238  11.076  -6.956  1.00  0.00    -0.000 C 
BRANCH  17  18
HETATM   18  C   UNL     1      25.893  11.357  -5.599  1.00  0.00    -0.005 C 
HETATM   19  C   UNL     1      24.841  11.618  -4.524  1.00  0.00     0.005 C 
ENDBRANCH  17  18
ENDBRANCH  16  17
ENDBRANCH  15  16
ENDBRANCH  14  15
ENDBRANCH  13  14
ENDBRANCH  11  12
ENDBRANCH  10  11
ENDBRANCH   9  10
ENDBRANCH   8   9
ENDBRANCH   7   8
ENDBRANCH   6   7
ENDBRANCH   5   6
ENDBRANCH   3   5
ENDBRANCH   1   3
TORSDOF 14
ENDMDL
MODEL 2
REMARK VINA RESULT:      -5.5     19.762     22.364
REMARK  14 active torsions:
REMARK  status: ('A' for Active; 'I' for Inactive)
REMARK    1  A    between atoms: O_1  and  C_18 
REMARK    2  A    between atoms: C_3  and  C_4 
REMARK    3  A    between atoms: C_3  and  C_5 
REMARK    4  A    between atoms: C_4  and  C_6 
REMARK    5  A    between atoms: C_5  and  C_7 
REMARK    6  A    between atoms: C_6  and  C_8 
REMARK    7  A    between atoms: C_7  and  C_13 
REMARK    8  A    between atoms: C_8  and  C_15 
REMARK    9  A    between atoms: C_9  and  C_10 
REMARK   10  A    between atoms: C_9  and  C_11 
REMARK   11  A    between atoms: C_10  and  C_12 
REMARK   12  A    between atoms: C_11  and  C_14 
REMARK   13  A    between atoms: C_12  and  C_16 
REMARK   14  A    between atoms: C_15  and  C_18 
ROOT
HETATM    1  O   UNL     1      12.073  -2.507  -2.523  1.00  0.00    -0.776 OA
HETATM    2  H   UNL     1      11.813  -2.481  -1.591  1.00  0.00     0.167 HD
ENDROOT
BRANCH   1   3
HETATM    3  C   UNL     1      11.166  -2.357  -3.511  1.00  0.00     0.139 C 
HETATM    4  O   UNL     1      10.141  -3.025  -3.501  1.00  0.00    -0.650 OA
BRANCH   3   5
HETATM    5  C   UNL     1      11.439  -1.363  -4.610  1.00  0.00     0.110 C 
BRANCH   5   6
HETATM    6  C   UNL     1      11.834  -2.025  -5.938  1.00  0.00     0.010 C 
BRANCH   6   7
HETATM    7  C   UNL     1      11.014  -1.455  -7.102  1.00  0.00     0.001 C 
BRANCH   7   8
HETATM    8  C   UNL     1      11.176  -2.314  -8.361  1.00  0.00     0.000 C 
BRANCH   8   9
HETATM    9  C   UNL     1      12.167  -1.674  -9.341  1.00  0.00     0.000 C 
BRANCH   9  10
HETATM   10  C   UNL     1      11.470  -1.274 -10.647  1.00  0.00     0.004 C 
BRANCH  10  11
HETATM   11  C   UNL     1      11.731  -2.315 -11.748  1.00  0.00     0.027 C 
BRANCH  11  12
HETATM   12  C   UNL     1      10.717  -2.230 -12.863  1.00  0.00    -0.031 C 
HETATM   13  C   UNL     1      10.991  -1.976 -14.158  1.00  0.00    -0.031 C 
BRANCH  13  14
HETATM   14  C   UNL     1      12.368  -1.768 -14.740  1.00  0.00     0.027 C 
BRANCH  14  15
HETATM   15  C   UNL     1      12.279  -1.582 -16.258  1.00  0.00     0.004 C 
BRANCH  15  16
HETATM   16  C   UNL     1      10.824  -1.408 -16.707  1.00  0.00     0.000 C 
BRANCH  16  17
HETATM   17  C   UNL     1      10.607  -1.993 -18.108  1.00  0.00    -0.000 C 
BRANCH  17  18
HETATM   18  C   UNL     1      11.900  -1.943 -18.930  1.00  0.00    -0.005 C 
HETATM   19  C   UNL     1      11.636  -1.423 -20.340  1.00  0.00     0.005 C 
ENDBRANCH  17  18
ENDBRANCH  16  17
ENDBRANCH  15  16
ENDBRANCH  14  15
ENDBRANCH  13  14
ENDBRANCH  11  12
ENDBRANCH  10  11
ENDBRANCH   9  10
ENDBRANCH   8   9
ENDBRANCH   7   8
ENDBRANCH   6   7
ENDBRANCH   5   6
ENDBRANCH   3   5
ENDBRANCH   1   3
TORSDOF 14
ENDMDL
MODEL 3
REMARK VINA RESULT:      -5.4     19.282     22.171
REMARK  14 active torsions:
REMARK  status: ('A' for Active; 'I' for Inactive)
REMARK    1  A    between atoms: O_1  and  C_18 
REMARK    2  A    between atoms: C_3  and  C_4 
REMARK    3  A    between atoms: C_3  and  C_5 
REMARK    4  A    between atoms: C_4  and  C_6 
REMARK    5  A    between atoms: C_5  and  C_7 
REMARK    6  A    between atoms: C_6  and  C_8 
REMARK    7  A    between atoms: C_7  and  C_13 
REMARK    8  A    between atoms: C_8  and  C_15 
REMARK    9  A    between atoms: C_9  and  C_10 
REMARK   10  A    between atoms: C_9  and  C_11 
REMARK   11  A    between atoms: C_10  and  C_12 
REMARK   12  A    between atoms: C_11  and  C_14 
REMARK   13  A    between atoms: C_12  and  C_16 
REMARK   14  A    between atoms: C_15  and  C_18 
ROOT
HETATM    1  O   UNL     1      11.896  -3.162  -7.911  1.00  0.00    -0.776 OA
HETATM    2  H   UNL     1      11.921  -3.957  -8.463  1.00  0.00     0.167 HD
ENDROOT
BRANCH   1   3
HETATM    3  C   UNL     1      11.291  -2.032  -8.333  1.00  0.00     0.139 C 
HETATM    4  O   UNL     1      10.228  -1.688  -7.833  1.00  0.00    -0.650 OA
BRANCH   3   5
HETATM    5  C   UNL     1      11.944  -1.214  -9.416  1.00  0.00     0.110 C 
BRANCH   5   6
HETATM    6  C   UNL     1      12.107  -1.982 -10.737  1.00  0.00     0.010 C 
BRANCH   6   7
HETATM    7  C   UNL     1      10.742  -2.321 -11.348  1.00  0.00     0.001 C 
BRANCH   7   8
HETATM    8  C   UNL     1      10.831  -2.413 -12.876  1.00  0.00     0.000 C 
BRANCH   8   9
HETATM    9  C   UNL     1      11.948  -1.514 -13.418  1.00  0.00     0.000 C 
BRANCH   9  10
HETATM   10  C   UNL     1      12.329  -1.910 -14.849  1.00  0.00     0.004 C 
BRANCH  10  11
HETATM   11  C   UNL     1      11.484  -1.138 -15.875  1.00  0.00     0.027 C 
BRANCH  11  12
HETATM   12  C   UNL     1      10.722  -2.061 -16.795  1.00  0.00    -0.031 C 
HETATM   13  C   UNL     1      10.939  -2.210 -18.116  1.00  0.00    -0.031 C 
BRANCH  13  14
HETATM   14  C   UNL     1      12.013  -1.512 -18.914  1.00  0.00     0.027 C 
BRANCH  14  15
HETATM   15  C   UNL     1      12.124  -2.133 -20.310  1.00  0.00     0.004 C 
BRANCH  15  16
HETATM   16  C   UNL     1      11.427  -1.259 -21.359  1.00  0.00     0.000 C 
BRANCH  16  17
HETATM   17  C   UNL     1      12.278  -1.138 -22.629  1.00  0.00    -0.000 C 
BRANCH  17  18
HETATM   18  C   UNL     1      11.659  -1.934 -23.783  1.00  0.00    -0.005 C 
HETATM   19  C   UNL     1      10.540  -2.844 -23.286  1.00  0.00     0.005 C 
ENDBRANCH  17  18
ENDBRANCH  16  17
ENDBRANCH  15  16
ENDBRANCH  14  15
ENDBRANCH  13  14
ENDBRANCH  11  12
ENDBRANCH  10  11
ENDBRANCH   9  10
ENDBRANCH   8   9
ENDBRANCH   7   8
ENDBRANCH   6   7
ENDBRANCH   5   6
ENDBRANCH   3   5
ENDBRANCH   1   3
TORSDOF 14
ENDMDL
MODEL 4
REMARK VINA RESULT:      -5.3      4.624      9.099
REMARK  14 active torsions:
REMARK  status: ('A' for Active; 'I' for Inactive)
REMARK    1  A    between atoms: O_1  and  C_18 
REMARK    2  A    between atoms: C_3  and  C_4 
REMARK    3  A    between atoms: C_3  and  C_5 
REMARK    4  A    between atoms: C_4  and  C_6 
REMARK    5  A    between atoms: C_5  and  C_7 
REMARK    6  A    between atoms: C_6  and  C_8 
REMARK    7  A    between atoms: C_7  and  C_13 
REMARK    8  A    between atoms: C_8  and  C_15 
REMARK    9  A    between atoms: C_9  and  C_10 
REMARK   10  A    between atoms: C_9  and  C_11 
REMARK   11  A    between atoms: C_10  and  C_12 
REMARK   12  A    between atoms: C_11  and  C_14 
REMARK   13  A    between atoms: C_12  and  C_16 
REMARK   14  A    between atoms: C_15  and  C_18 
ROOT
HETATM    1  O   UNL     1      23.688  12.970 -11.831  1.00  0.00    -0.776 OA
HETATM    2  H   UNL     1      22.786  12.766 -12.120  1.00  0.00     0.167 HD
ENDROOT
BRANCH   1   3
HETATM    3  C   UNL     1      24.759  12.632 -12.579  1.00  0.00     0.139 C 
HETATM    4  O   UNL     1      25.860  13.095 -12.309  1.00  0.00    -0.650 OA
BRANCH   3   5
HETATM    5  C   UNL     1      24.574  11.685 -13.736  1.00  0.00     0.110 C 
BRANCH   5   6
HETATM    6  C   UNL     1      25.889  11.343 -14.453  1.00  0.00     0.010 C 
BRANCH   6   7
HETATM    7  C   UNL     1      25.938  11.981 -15.846  1.00  0.00     0.001 C 
BRANCH   7   8
HETATM    8  C   UNL     1      24.966  11.285 -16.805  1.00  0.00     0.000 C 
BRANCH   8   9
HETATM    9  C   UNL     1      24.392  12.276 -17.825  1.00  0.00     0.000 C 
BRANCH   9  10
HETATM   10  C   UNL     1      23.836  11.545 -19.052  1.00  0.00     0.004 C 
BRANCH  10  11
HETATM   11  C   UNL     1      24.401  12.144 -20.350  1.00  0.00     0.027 C 
BRANCH  11  12
HETATM   12  C   UNL     1      25.223  11.146 -21.127  1.00  0.00    -0.031 C 
HETATM   13  C   UNL     1      26.567  11.142 -21.228  1.00  0.00    -0.031 C 
BRANCH  13  14
HETATM   14  C   UNL     1      27.502  12.113 -20.549  1.00  0.00     0.027 C 
BRANCH  14  15
HETATM   15  C   UNL     1      27.816  11.640 -19.127  1.00  0.00     0.004 C 
BRANCH  15  16
HETATM   16  C   UNL     1      28.557  12.726 -18.337  1.00  0.00     0.000 C 
BRANCH  16  17
HETATM   17  C   UNL     1      27.715  14.004 -18.237  1.00  0.00    -0.000 C 
BRANCH  17  18
HETATM   18  C   UNL     1      28.063  14.792 -16.968  1.00  0.00    -0.005 C 
HETATM   19  C   UNL     1      29.258  15.711 -17.202  1.00  0.00     0.005 C 
ENDBRANCH  17  18
ENDBRANCH  16  17
ENDBRANCH  15  16
ENDBRANCH  14  15
ENDBRANCH  13  14
ENDBRANCH  11  12
ENDBRANCH  10  11
ENDBRANCH   9  10
ENDBRANCH   8   9
ENDBRANCH   7   8
ENDBRANCH   6   7
ENDBRANCH   5   6
ENDBRANCH   3   5
ENDBRANCH   1   3
TORSDOF 14
ENDMDL
MODEL 5
REMARK VINA RESULT:      -5.1      4.456     10.331
REMARK  14 active torsions:
REMARK  status: ('A' for Active; 'I' for Inactive)
REMARK    1  A    between atoms: O_1  and  C_18 
REMARK    2  A    between atoms: C_3  and  C_4 
REMARK    3  A    between atoms: C_3  and  C_5 
REMARK    4  A    between atoms: C_4  and  C_6 
REMARK    5  A    between atoms: C_5  and  C_7 
REMARK    6  A    between atoms: C_6  and  C_8 
REMARK    7  A    between atoms: C_7  and  C_13 
REMARK    8  A    between atoms: C_8  and  C_15 
REMARK    9  A    between atoms: C_9  and  C_10 
REMARK   10  A    between atoms: C_9  and  C_11 
REMARK   11  A    between atoms: C_10  and  C_12 
REMARK   12  A    between atoms: C_11  and  C_14 
REMARK   13  A    between atoms: C_12  and  C_16 
REMARK   14  A    between atoms: C_15  and  C_18 
ROOT
HETATM    1  O   UNL     1      27.350  13.332  -8.827  1.00  0.00    -0.776 OA
HETATM    2  H   UNL     1      26.960  13.703  -9.632  1.00  0.00     0.167 HD
ENDROOT
BRANCH   1   3
HETATM    3  C   UNL     1      26.790  12.280  -8.194  1.00  0.00     0.139 C 
HETATM    4  O   UNL     1      27.428  11.245  -8.053  1.00  0.00    -0.650 OA
BRANCH   3   5
HETATM    5  C   UNL     1      25.383  12.407  -7.670  1.00  0.00     0.110 C 
BRANCH   5   6
HETATM    6  C   UNL     1      24.346  11.689  -8.547  1.00  0.00     0.010 C 
BRANCH   6   7
HETATM    7  C   UNL     1      24.782  11.678 -10.017  1.00  0.00     0.001 C 
BRANCH   7   8
HETATM    8  C   UNL     1      23.804  12.477 -10.887  1.00  0.00     0.000 C 
BRANCH   8   9
HETATM    9  C   UNL     1      24.194  12.399 -12.368  1.00  0.00     0.000 C 
BRANCH   9  10
HETATM   10  C   UNL     1      25.701  12.169 -12.529  1.00  0.00     0.004 C 
BRANCH  10  11
HETATM   11  C   UNL     1      25.998  11.368 -13.808  1.00  0.00     0.027 C 
BRANCH  11  12
HETATM   12  C   UNL     1      26.698  12.202 -14.853  1.00  0.00    -0.031 C 
HETATM   13  C   UNL     1      26.351  12.289 -16.151  1.00  0.00    -0.031 C 
BRANCH  13  14
HETATM   14  C   UNL     1      25.172  11.600 -16.794  1.00  0.00     0.027 C 
BRANCH  14  15
HETATM   15  C   UNL     1      24.617  12.454 -17.938  1.00  0.00     0.004 C 
BRANCH  15  16
HETATM   16  C   UNL     1      23.940  11.579 -19.000  1.00  0.00     0.000 C 
BRANCH  16  17
HETATM   17  C   UNL     1      24.165  12.148 -20.406  1.00  0.00    -0.000 C 
BRANCH  17  18
HETATM   18  C   UNL     1      25.411  11.532 -21.054  1.00  0.00    -0.005 C 
HETATM   19  C   UNL     1      25.128  11.102 -22.490  1.00  0.00     0.005 C 
ENDBRANCH  17  18
ENDBRANCH  16  17
ENDBRANCH  15  16
ENDBRANCH  14  15
ENDBRANCH  13  14
ENDBRANCH  11  12
ENDBRANCH  10  11
ENDBRANCH   9  10
ENDBRANCH   8   9
ENDBRANCH   7   8
ENDBRANCH   6   7
ENDBRANCH   5   6
ENDBRANCH   3   5
ENDBRANCH   1   3
TORSDOF 14
ENDMDL
MODEL 6
REMARK VINA RESULT:      -5.1      4.112      9.845
REMARK  14 active torsions:
REMARK  status: ('A' for Active; 'I' for Inactive)
REMARK    1  A    between atoms: O_1  and  C_18 
REMARK    2  A    between atoms: C_3  and  C_4 
REMARK    3  A    between atoms: C_3  and  C_5 
REMARK    4  A    between atoms: C_4  and  C_6 
REMARK    5  A    between atoms: C_5  and  C_7 
REMARK    6  A    between atoms: C_6  and  C_8 
REMARK    7  A    between atoms: C_7  and  C_13 
REMARK    8  A    between atoms: C_8  and  C_15 
REMARK    9  A    between atoms: C_9  and  C_10 
REMARK   10  A    between atoms: C_9  and  C_11 
REMARK   11  A    between atoms: C_10  and  C_12 
REMARK   12  A    between atoms: C_11  and  C_14 
REMARK   13  A    between atoms: C_12  and  C_16 
REMARK   14  A    between atoms: C_15  and  C_18 
ROOT
HETATM    1  O   UNL     1      28.900  14.453 -13.544  1.00  0.00    -0.776 OA
HETATM    2  H   UNL     1      29.817  14.181 -13.689  1.00  0.00     0.167 HD
ENDROOT
BRANCH   1   3
HETATM    3  C   UNL     1      28.330  14.383 -12.323  1.00  0.00     0.139 C 
HETATM    4  O   UNL     1      27.715  15.346 -11.882  1.00  0.00    -0.650 OA
BRANCH   3   5
HETATM    5  C   UNL     1      28.463  13.111 -11.526  1.00  0.00     0.110 C 
BRANCH   5   6
HETATM    6  C   UNL     1      27.140  12.651 -10.897  1.00  0.00     0.010 C 
BRANCH   6   7
HETATM    7  C   UNL     1      26.647  11.350 -11.541  1.00  0.00     0.001 C 
BRANCH   7   8
HETATM    8  C   UNL     1      25.121  11.349 -11.681  1.00  0.00     0.000 C 
BRANCH   8   9
HETATM    9  C   UNL     1      24.700  11.034 -13.121  1.00  0.00     0.000 C 
BRANCH   9  10
HETATM   10  C   UNL     1      24.666  12.306 -13.976  1.00  0.00     0.004 C 
BRANCH  10  11
HETATM   11  C   UNL     1      25.759  12.268 -15.057  1.00  0.00     0.027 C 
BRANCH  11  12
HETATM   12  C   UNL     1      25.657  11.041 -15.929  1.00  0.00    -0.031 C 
HETATM   13  C   UNL     1      25.285  11.025 -17.224  1.00  0.00    -0.031 C 
BRANCH  13  14
HETATM   14  C   UNL     1      24.941  12.236 -18.054  1.00  0.00     0.027 C 
BRANCH  14  15
HETATM   15  C   UNL     1      23.659  11.985 -18.854  1.00  0.00     0.004 C 
BRANCH  15  16
HETATM   16  C   UNL     1      23.849  12.357 -20.329  1.00  0.00     0.000 C 
BRANCH  16  17
HETATM   17  C   UNL     1      25.095  11.680 -20.912  1.00  0.00    -0.000 C 
BRANCH  17  18
HETATM   18  C   UNL     1      25.311  12.092 -22.373  1.00  0.00    -0.005 C 
HETATM   19  C   UNL     1      24.464  11.242 -23.315  1.00  0.00     0.005 C 
ENDBRANCH  17  18
ENDBRANCH  16  17
ENDBRANCH  15  16
ENDBRANCH  14  15
ENDBRANCH  13  14
ENDBRANCH  11  12
ENDBRANCH  10  11
ENDBRANCH   9  10
ENDBRANCH   8   9
ENDBRANCH   7   8
ENDBRANCH   6   7
ENDBRANCH   5   6
ENDBRANCH   3   5
ENDBRANCH   1   3
TORSDOF 14
ENDMDL
MODEL 7
REMARK VINA RESULT:      -5.1      5.806     11.201
REMARK  14 active torsions:
REMARK  status: ('A' for Active; 'I' for Inactive)
REMARK    1  A    between atoms: O_1  and  C_18 
REMARK    2  A    between atoms: C_3  and  C_4 
REMARK    3  A    between atoms: C_3  and  C_5 
REMARK    4  A    between atoms: C_4  and  C_6 
REMARK    5  A    between atoms: C_5  and  C_7 
REMARK    6  A    between atoms: C_6  and  C_8 
REMARK    7  A    between atoms: C_7  and  C_13 
REMARK    8  A    between atoms: C_8  and  C_15 
REMARK    9  A    between atoms: C_9  and  C_10 
REMARK   10  A    between atoms: C_9  and  C_11 
REMARK   11  A    between atoms: C_10  and  C_12 
REMARK   12  A    between atoms: C_11  and  C_14 
REMARK   13  A    between atoms: C_12  and  C_16 
REMARK   14  A    between atoms: C_15  and  C_18 
ROOT
HETATM    1  O   UNL     1      29.579  13.375  -4.767  1.00  0.00    -0.776 OA
HETATM    2  H   UNL     1      30.344  13.569  -4.206  1.00  0.00     0.167 HD
ENDROOT
BRANCH   1   3
HETATM    3  C   UNL     1      28.649  12.468  -4.400  1.00  0.00     0.139 C 
HETATM    4  O   UNL     1      28.982  11.311  -4.180  1.00  0.00    -0.650 OA
BRANCH   3   5
HETATM    5  C   UNL     1      27.214  12.906  -4.267  1.00  0.00     0.110 C 
BRANCH   5   6
HETATM    6  C   UNL     1      26.211  11.762  -4.484  1.00  0.00     0.010 C 
BRANCH   6   7
HETATM    7  C   UNL     1      25.102  12.181  -5.456  1.00  0.00     0.001 C 
BRANCH   7   8
HETATM    8  C   UNL     1      25.116  11.308  -6.716  1.00  0.00     0.000 C 
BRANCH   8   9
HETATM    9  C   UNL     1      24.767  12.132  -7.961  1.00  0.00     0.000 C 
BRANCH   9  10
HETATM   10  C   UNL     1      24.482  11.223  -9.162  1.00  0.00     0.004 C 
BRANCH  10  11
HETATM   11  C   UNL     1      24.490  12.027 -10.473  1.00  0.00     0.027 C 
BRANCH  11  12
HETATM   12  C   UNL     1      25.408  11.421 -11.507  1.00  0.00    -0.031 C 
HETATM   13  C   UNL     1      25.131  11.279 -12.817  1.00  0.00    -0.031 C 
BRANCH  13  14
HETATM   14  C   UNL     1      23.866  11.734 -13.503  1.00  0.00     0.027 C 
BRANCH  14  15
HETATM   15  C   UNL     1      24.197  12.386 -14.849  1.00  0.00     0.004 C 
BRANCH  15  16
HETATM   16  C   UNL     1      24.944  11.409 -15.765  1.00  0.00     0.000 C 
BRANCH  16  17
HETATM   17  C   UNL     1      25.250  12.052 -17.122  1.00  0.00    -0.000 C 
BRANCH  17  18
HETATM   18  C   UNL     1      24.747  11.173 -18.273  1.00  0.00    -0.005 C 
HETATM   19  C   UNL     1      23.702  11.905 -19.108  1.00  0.00     0.005 C 
ENDBRANCH  17  18
ENDBRANCH  16  17
ENDBRANCH  15  16
ENDBRANCH  14  15
ENDBRANCH  13  14
ENDBRANCH  11  12
ENDBRANCH  10  11
ENDBRANCH   9  10
ENDBRANCH   8   9
ENDBRANCH   7   8
ENDBRANCH   6   7
ENDBRANCH   5   6
ENDBRANCH   3   5
ENDBRANCH   1   3
TORSDOF 14
ENDMDL
MODEL 8
REMARK VINA RESULT:      -5.1      1.553      2.867
REMARK  14 active torsions:
REMARK  status: ('A' for Active; 'I' for Inactive)
REMARK    1  A    between atoms: O_1  and  C_18 
REMARK    2  A    between atoms: C_3  and  C_4 
REMARK    3  A    between atoms: C_3  and  C_5 
REMARK    4  A    between atoms: C_4  and  C_6 
REMARK    5  A    between atoms: C_5  and  C_7 
REMARK    6  A    between atoms: C_6  and  C_8 
REMARK    7  A    between atoms: C_7  and  C_13 
REMARK    8  A    between atoms: C_8  and  C_15 
REMARK    9  A    between atoms: C_9  and  C_10 
REMARK   10  A    between atoms: C_9  and  C_11 
REMARK   11  A    between atoms: C_10  and  C_12 
REMARK   12  A    between atoms: C_11  and  C_14 
REMARK   13  A    between atoms: C_12  and  C_16 
REMARK   14  A    between atoms: C_15  and  C_18 
ROOT
HETATM    1  O   UNL     1      25.937  13.357 -22.706  1.00  0.00    -0.776 OA
HETATM    2  H   UNL     1      26.411  14.018 -22.182  1.00  0.00     0.167 HD
ENDROOT
BRANCH   1   3
HETATM    3  C   UNL     1      25.079  12.487 -22.131  1.00  0.00     0.139 C 
HETATM    4  O   UNL     1      23.929  12.833 -21.896  1.00  0.00    -0.650 OA
BRANCH   3   5
HETATM    5  C   UNL     1      25.562  11.101 -21.792  1.00  0.00     0.110 C 
BRANCH   5   6
HETATM    6  C   UNL     1      25.623  10.838 -20.279  1.00  0.00     0.010 C 
BRANCH   6   7
HETATM    7  C   UNL     1      26.848  11.514 -19.652  1.00  0.00     0.001 C 
BRANCH   7   8
HETATM    8  C   UNL     1      26.504  12.119 -18.286  1.00  0.00     0.000 C 
BRANCH   8   9
HETATM    9  C   UNL     1      25.510  11.233 -17.526  1.00  0.00     0.000 C 
BRANCH   9  10
HETATM   10  C   UNL     1      24.657  12.065 -16.561  1.00  0.00     0.004 C 
BRANCH  10  11
HETATM   11  C   UNL     1      24.389  11.290 -15.260  1.00  0.00     0.027 C 
BRANCH  11  12
HETATM   12  C   UNL     1      24.033  12.206 -14.115  1.00  0.00    -0.031 C 
HETATM   13  C   UNL     1      24.441  12.065 -12.838  1.00  0.00    -0.031 C 
BRANCH  13  14
HETATM   14  C   UNL     1      25.362  10.986 -12.324  1.00  0.00     0.027 C 
BRANCH  14  15
HETATM   15  C   UNL     1      26.456  11.597 -11.445  1.00  0.00     0.004 C 
BRANCH  15  16
HETATM   16  C   UNL     1      25.858  12.244 -10.190  1.00  0.00     0.000 C 
BRANCH  16  17
HETATM   17  C   UNL     1      24.503  11.617  -9.841  1.00  0.00    -0.000 C 
BRANCH  17  18
HETATM   18  C   UNL     1      24.405  11.322  -8.340  1.00  0.00    -0.005 C 
HETATM   19  C   UNL     1      25.767  11.446  -7.665  1.00  0.00     0.005 C 
ENDBRANCH  17  18
ENDBRANCH  16  17
ENDBRANCH  15  16
ENDBRANCH  14  15
ENDBRANCH  13  14
ENDBRANCH  11  12
ENDBRANCH  10  11
ENDBRANCH   9  10
ENDBRANCH   8   9
ENDBRANCH   7   8
ENDBRANCH   6   7
ENDBRANCH   5   6
ENDBRANCH   3   5
ENDBRANCH   1   3
TORSDOF 14
ENDMDL
MODEL 9
REMARK VINA RESULT:      -5.0      3.008      4.706
REMARK  14 active torsions:
REMARK  status: ('A' for Active; 'I' for Inactive)
REMARK    1  A    between atoms: O_1  and  C_18 
REMARK    2  A    between atoms: C_3  and  C_4 
REMARK    3  A    between atoms: C_3  and  C_5 
REMARK    4  A    between atoms: C_4  and  C_6 
REMARK    5  A    between atoms: C_5  and  C_7 
REMARK    6  A    between atoms: C_6  and  C_8 
REMARK    7  A    between atoms: C_7  and  C_13 
REMARK    8  A    between atoms: C_8  and  C_15 
REMARK    9  A    between atoms: C_9  and  C_10 
REMARK   10  A    between atoms: C_9  and  C_11 
REMARK   11  A    between atoms: C_10  and  C_12 
REMARK   12  A    between atoms: C_11  and  C_14 
REMARK   13  A    between atoms: C_12  and  C_16 
REMARK   14  A    between atoms: C_15  and  C_18 
ROOT
HETATM    1  O   UNL     1      27.548  12.741 -20.923  1.00  0.00    -0.776 OA
HETATM    2  H   UNL     1      28.214  12.075 -20.700  1.00  0.00     0.167 HD
ENDROOT
BRANCH   1   3
HETATM    3  C   UNL     1      26.253  12.406 -21.107  1.00  0.00     0.139 C 
HETATM    4  O   UNL     1      25.657  12.806 -22.098  1.00  0.00    -0.650 OA
BRANCH   3   5
HETATM    5  C   UNL     1      25.569  11.541 -20.081  1.00  0.00     0.110 C 
BRANCH   5   6
HETATM    6  C   UNL     1      24.178  12.060 -19.685  1.00  0.00     0.010 C 
BRANCH   6   7
HETATM    7  C   UNL     1      24.025  12.116 -18.161  1.00  0.00     0.001 C 
BRANCH   7   8
HETATM    8  C   UNL     1      24.869  11.032 -17.482  1.00  0.00     0.000 C 
BRANCH   8   9
HETATM    9  C   UNL     1      25.497  11.555 -16.184  1.00  0.00     0.000 C 
BRANCH   9  10
HETATM   10  C   UNL     1      24.447  12.239 -15.301  1.00  0.00     0.004 C 
BRANCH  10  11
HETATM   11  C   UNL     1      24.092  11.359 -14.091  1.00  0.00     0.027 C 
BRANCH  11  12
HETATM   12  C   UNL     1      24.061  12.145 -12.804  1.00  0.00    -0.031 C 
HETATM   13  C   UNL     1      24.929  12.015 -11.782  1.00  0.00    -0.031 C 
BRANCH  13  14
HETATM   14  C   UNL     1      26.118  11.086 -11.751  1.00  0.00     0.027 C 
BRANCH  14  15
HETATM   15  C   UNL     1      27.419  11.886 -11.863  1.00  0.00     0.004 C 
BRANCH  15  16
HETATM   16  C   UNL     1      27.531  12.567 -13.232  1.00  0.00     0.000 C 
BRANCH  16  17
HETATM   17  C   UNL     1      28.917  12.340 -13.848  1.00  0.00    -0.000 C 
BRANCH  17  18
HETATM   18  C   UNL     1      29.139  13.259 -15.055  1.00  0.00    -0.005 C 
HETATM   19  C   UNL     1      29.026  14.727 -14.655  1.00  0.00     0.005 C 
ENDBRANCH  17  18
ENDBRANCH  16  17
ENDBRANCH  15  16
ENDBRANCH  14  15
ENDBRANCH  13  14
ENDBRANCH  11  12
ENDBRANCH  10  11
ENDBRANCH   9  10
ENDBRANCH   8   9
ENDBRANCH   7   8
ENDBRANCH   6   7
ENDBRANCH   5   6
ENDBRANCH   3   5
ENDBRANCH   1   3
TORSDOF 14
ENDMDL
MODEL 10
REMARK VINA RESULT:      -5.0      2.584      2.893
REMARK  14 active torsions:
REMARK  status: ('A' for Active; 'I' for Inactive)
REMARK    1  A    between atoms: O_1  and  C_18 
REMARK    2  A    between atoms: C_3  and  C_4 
REMARK    3  A    between atoms: C_3  and  C_5 
REMARK    4  A    between atoms: C_4  and  C_6 
REMARK    5  A    between atoms: C_5  and  C_7 
REMARK    6  A    between atoms: C_6  and  C_8 
REMARK    7  A    between atoms: C_7  and  C_13 
REMARK    8  A    between atoms: C_8  and  C_15 
REMARK    9  A    between atoms: C_9  and  C_10 
REMARK   10  A    between atoms: C_9  and  C_11 
REMARK   11  A    between atoms: C_10  and  C_12 
REMARK   12  A    between atoms: C_11  and  C_14 
REMARK   13  A    between atoms: C_12  and  C_16 
REMARK   14  A    between atoms: C_15  and  C_18 
ROOT
HETATM    1  O   UNL     1      28.259  15.220 -16.267  1.00  0.00    -0.776 OA
HETATM    2  H   UNL     1      28.372  16.174 -16.148  1.00  0.00     0.167 HD
ENDROOT
BRANCH   1   3
HETATM    3  C   UNL     1      28.175  14.669 -17.496  1.00  0.00     0.139 C 
HETATM    4  O   UNL     1      28.709  15.222 -18.448  1.00  0.00    -0.650 OA
BRANCH   3   5
HETATM    5  C   UNL     1      27.419  13.377 -17.667  1.00  0.00     0.110 C 
BRANCH   5   6
HETATM    6  C   UNL     1      27.412  12.510 -16.399  1.00  0.00     0.010 C 
BRANCH   6   7
HETATM    7  C   UNL     1      26.248  11.512 -16.421  1.00  0.00     0.001 C 
BRANCH   7   8
HETATM    8  C   UNL     1      24.930  12.212 -16.773  1.00  0.00     0.000 C 
BRANCH   8   9
HETATM    9  C   UNL     1      24.053  12.393 -15.529  1.00  0.00     0.000 C 
BRANCH   9  10
HETATM   10  C   UNL     1      24.313  11.281 -14.505  1.00  0.00     0.004 C 
BRANCH  10  11
HETATM   11  C   UNL     1      24.311  11.844 -13.074  1.00  0.00     0.027 C 
BRANCH  11  12
HETATM   12  C   UNL     1      25.364  11.199 -12.207  1.00  0.00    -0.031 C 
HETATM   13  C   UNL     1      25.519  11.391 -10.883  1.00  0.00    -0.031 C 
BRANCH  13  14
HETATM   14  C   UNL     1      24.641  12.257 -10.012  1.00  0.00     0.027 C 
BRANCH  14  15
HETATM   15  C   UNL     1      24.004  11.418  -8.901  1.00  0.00     0.004 C 
BRANCH  15  16
HETATM   16  C   UNL     1      24.354  11.979  -7.517  1.00  0.00     0.000 C 
BRANCH  16  17
HETATM   17  C   UNL     1      25.773  11.570  -7.101  1.00  0.00    -0.000 C 
BRANCH  17  18
HETATM   18  C   UNL     1      25.869  11.394  -5.581  1.00  0.00    -0.005 C 
HETATM   19  C   UNL     1      24.611  11.906  -4.887  1.00  0.00     0.005 C 
ENDBRANCH  17  18
ENDBRANCH  16  17
ENDBRANCH  15  16
ENDBRANCH  14  15
ENDBRANCH  13  14
ENDBRANCH  11  12
ENDBRANCH  10  11
ENDBRANCH   9  10
ENDBRANCH   8   9
ENDBRANCH   7   8
ENDBRANCH   6   7
ENDBRANCH   5   6
ENDBRANCH   3   5
ENDBRANCH   1   3
TORSDOF 14
ENDMDL
MODEL 11
REMARK VINA RESULT:      -5.0      2.330      3.457
REMARK  14 active torsions:
REMARK  status: ('A' for Active; 'I' for Inactive)
REMARK    1  A    between atoms: O_1  and  C_18 
REMARK    2  A    between atoms: C_3  and  C_4 
REMARK    3  A    between atoms: C_3  and  C_5 
REMARK    4  A    between atoms: C_4  and  C_6 
REMARK    5  A    between atoms: C_5  and  C_7 
REMARK    6  A    between atoms: C_6  and  C_8 
REMARK    7  A    between atoms: C_7  and  C_13 
REMARK    8  A    between atoms: C_8  and  C_15 
REMARK    9  A    between atoms: C_9  and  C_10 
REMARK   10  A    between atoms: C_9  and  C_11 
REMARK   11  A    between atoms: C_10  and  C_12 
REMARK   12  A    between atoms: C_11  and  C_14 
REMARK   13  A    between atoms: C_12  and  C_16 
REMARK   14  A    between atoms: C_15  and  C_18 
ROOT
HETATM    1  O   UNL     1      27.796  12.633 -20.734  1.00  0.00    -0.776 OA
HETATM    2  H   UNL     1      28.618  12.916 -20.309  1.00  0.00     0.167 HD
ENDROOT
BRANCH   1   3
HETATM    3  C   UNL     1      27.304  11.389 -20.556  1.00  0.00     0.139 C 
HETATM    4  O   UNL     1      27.897  10.599 -19.834  1.00  0.00    -0.650 OA
BRANCH   3   5
HETATM    5  C   UNL     1      26.028  11.001 -21.256  1.00  0.00     0.110 C 
BRANCH   5   6
HETATM    6  C   UNL     1      24.894  12.017 -21.051  1.00  0.00     0.010 C 
BRANCH   6   7
HETATM    7  C   UNL     1      24.790  12.435 -19.580  1.00  0.00     0.001 C 
BRANCH   7   8
HETATM    8  C   UNL     1      24.100  11.349 -18.746  1.00  0.00     0.000 C 
BRANCH   8   9
HETATM    9  C   UNL     1      24.998  10.885 -17.594  1.00  0.00     0.000 C 
BRANCH   9  10
HETATM   10  C   UNL     1      25.186  11.999 -16.558  1.00  0.00     0.004 C 
BRANCH  10  11
HETATM   11  C   UNL     1      25.227  11.422 -15.133  1.00  0.00     0.027 C 
BRANCH  11  12
HETATM   12  C   UNL     1      24.011  11.808 -14.327  1.00  0.00    -0.031 C 
HETATM   13  C   UNL     1      24.020  12.258 -13.057  1.00  0.00    -0.031 C 
BRANCH  13  14
HETATM   14  C   UNL     1      25.252  12.498 -12.218  1.00  0.00     0.027 C 
BRANCH  14  15
HETATM   15  C   UNL     1      25.434  11.362 -11.207  1.00  0.00     0.004 C 
BRANCH  15  16
HETATM   16  C   UNL     1      26.910  11.194 -10.828  1.00  0.00     0.000 C 
BRANCH  16  17
HETATM   17  C   UNL     1      27.116  11.378  -9.320  1.00  0.00    -0.000 C 
BRANCH  17  18
HETATM   18  C   UNL     1      28.186  12.439  -9.037  1.00  0.00    -0.005 C 
HETATM   19  C   UNL     1      28.159  13.541 -10.092  1.00  0.00     0.005 C 
ENDBRANCH  17  18
ENDBRANCH  16  17
ENDBRANCH  15  16
ENDBRANCH  14  15
ENDBRANCH  13  14
ENDBRANCH  11  12
ENDBRANCH  10  11
ENDBRANCH   9  10
ENDBRANCH   8   9
ENDBRANCH   7   8
ENDBRANCH   6   7
ENDBRANCH   5   6
ENDBRANCH   3   5
ENDBRANCH   1   3
TORSDOF 14
ENDMDL
MODEL 12
REMARK VINA RESULT:      -5.0      3.853      5.822
REMARK  14 active torsions:
REMARK  status: ('A' for Active; 'I' for Inactive)
REMARK    1  A    between atoms: O_1  and  C_18 
REMARK    2  A    between atoms: C_3  and  C_4 
REMARK    3  A    between atoms: C_3  and  C_5 
REMARK    4  A    between atoms: C_4  and  C_6 
REMARK    5  A    between atoms: C_5  and  C_7 
REMARK    6  A    between atoms: C_6  and  C_8 
REMARK    7  A    between atoms: C_7  and  C_13 
REMARK    8  A    between atoms: C_8  and  C_15 
REMARK    9  A    between atoms: C_9  and  C_10 
REMARK   10  A    between atoms: C_9  and  C_11 
REMARK   11  A    between atoms: C_10  and  C_12 
REMARK   12  A    between atoms: C_11  and  C_14 
REMARK   13  A    between atoms: C_12  and  C_16 
REMARK   14  A    between atoms: C_15  and  C_18 
ROOT
HETATM    1  O   UNL     1      30.390  14.876 -13.110  1.00  0.00    -0.776 OA
HETATM    2  H   UNL     1      30.648  14.324 -13.863  1.00  0.00     0.167 HD
ENDROOT
BRANCH   1   3
HETATM    3  C   UNL     1      29.098  15.004 -12.743  1.00  0.00     0.139 C 
HETATM    4  O   UNL     1      28.630  16.118 -12.544  1.00  0.00    -0.650 OA
BRANCH   3   5
HETATM    5  C   UNL     1      28.256  13.765 -12.585  1.00  0.00     0.110 C 
BRANCH   5   6
HETATM    6  C   UNL     1      27.445  13.423 -13.845  1.00  0.00     0.010 C 
BRANCH   6   7
HETATM    7  C   UNL     1      28.351  12.861 -14.947  1.00  0.00     0.001 C 
BRANCH   7   8
HETATM    8  C   UNL     1      27.833  13.250 -16.336  1.00  0.00     0.000 C 
BRANCH   8   9
HETATM    9  C   UNL     1      27.693  12.017 -17.237  1.00  0.00     0.000 C 
BRANCH   9  10
HETATM   10  C   UNL     1      26.230  11.788 -17.633  1.00  0.00     0.004 C 
BRANCH  10  11
HETATM   11  C   UNL     1      25.441  11.157 -16.474  1.00  0.00     0.027 C 
BRANCH  11  12
HETATM   12  C   UNL     1      24.399  12.095 -15.916  1.00  0.00    -0.031 C 
HETATM   13  C   UNL     1      23.969  12.124 -14.639  1.00  0.00    -0.031 C 
BRANCH  13  14
HETATM   14  C   UNL     1      24.480  11.249 -13.520  1.00  0.00     0.027 C 
BRANCH  14  15
HETATM   15  C   UNL     1      24.482  12.025 -12.200  1.00  0.00     0.004 C 
BRANCH  15  16
HETATM   16  C   UNL     1      25.273  11.275 -11.122  1.00  0.00     0.000 C 
BRANCH  16  17
HETATM   17  C   UNL     1      25.430  12.130  -9.859  1.00  0.00    -0.000 C 
BRANCH  17  18
HETATM   18  C   UNL     1      24.159  12.083  -9.003  1.00  0.00    -0.005 C 
HETATM   19  C   UNL     1      24.493  12.176  -7.517  1.00  0.00     0.005 C 
ENDBRANCH  17  18
ENDBRANCH  16  17
ENDBRANCH  15  16
ENDBRANCH  14  15
ENDBRANCH  13  14
ENDBRANCH  11  12
ENDBRANCH  10  11
ENDBRANCH   9  10
ENDBRANCH   8   9
ENDBRANCH   7   8
ENDBRANCH   6   7
ENDBRANCH   5   6
ENDBRANCH   3   5
ENDBRANCH   1   3
TORSDOF 14
ENDMDL
MODEL 13
REMARK VINA RESULT:      -4.9      4.365     10.932
REMARK  14 active torsions:
REMARK  status: ('A' for Active; 'I' for Inactive)
REMARK    1  A    between atoms: O_1  and  C_18 
REMARK    2  A    between atoms: C_3  and  C_4 
REMARK    3  A    between atoms: C_3  and  C_5 
REMARK    4  A    between atoms: C_4  and  C_6 
REMARK    5  A    between atoms: C_5  and  C_7 
REMARK    6  A    between atoms: C_6  and  C_8 
REMARK    7  A    between atoms: C_7  and  C_13 
REMARK    8  A    between atoms: C_8  and  C_15 
REMARK    9  A    between atoms: C_9  and  C_10 
REMARK   10  A    between atoms: C_9  and  C_11 
REMARK   11  A    between atoms: C_10  and  C_12 
REMARK   12  A    between atoms: C_11  and  C_14 
REMARK   13  A    between atoms: C_12  and  C_16 
REMARK   14  A    between atoms: C_15  and  C_18 
ROOT
HETATM    1  O   UNL     1      28.090  12.818 -11.365  1.00  0.00    -0.776 OA
HETATM    2  H   UNL     1      28.055  13.509 -10.687  1.00  0.00     0.167 HD
ENDROOT
BRANCH   1   3
HETATM    3  C   UNL     1      27.466  11.634 -11.195  1.00  0.00     0.139 C 
HETATM    4  O   UNL     1      28.112  10.595 -11.234  1.00  0.00    -0.650 OA
BRANCH   3   5
HETATM    5  C   UNL     1      25.978  11.619 -10.958  1.00  0.00     0.110 C 
BRANCH   5   6
HETATM    6  C   UNL     1      25.199  10.883 -12.058  1.00  0.00     0.010 C 
BRANCH   6   7
HETATM    7  C   UNL     1      25.319  11.615 -13.401  1.00  0.00     0.001 C 
BRANCH   7   8
HETATM    8  C   UNL     1      24.095  11.350 -14.284  1.00  0.00     0.000 C 
BRANCH   8   9
HETATM    9  C   UNL     1      24.015  12.363 -15.432  1.00  0.00     0.000 C 
BRANCH   9  10
HETATM   10  C   UNL     1      25.173  12.171 -16.418  1.00  0.00     0.004 C 
BRANCH  10  11
HETATM   11  C   UNL     1      24.829  11.101 -17.467  1.00  0.00     0.027 C 
BRANCH  11  12
HETATM   12  C   UNL     1      24.008  11.661 -18.603  1.00  0.00    -0.031 C 
HETATM   13  C   UNL     1      24.423  11.805 -19.876  1.00  0.00    -0.031 C 
BRANCH  13  14
HETATM   14  C   UNL     1      25.773  11.395 -20.413  1.00  0.00     0.027 C 
BRANCH  14  15
HETATM   15  C   UNL     1      26.622  12.633 -20.714  1.00  0.00     0.004 C 
BRANCH  15  16
HETATM   16  C   UNL     1      26.889  12.766 -22.218  1.00  0.00     0.000 C 
BRANCH  16  17
HETATM   17  C   UNL     1      25.579  12.733 -23.014  1.00  0.00    -0.000 C 
BRANCH  17  18
HETATM   18  C   UNL     1      25.603  11.615 -24.063  1.00  0.00    -0.005 C 
HETATM   19  C   UNL     1      27.015  11.390 -24.595  1.00  0.00     0.005 C 
ENDBRANCH  17  18
ENDBRANCH  16  17
ENDBRANCH  15  16
ENDBRANCH  14  15
ENDBRANCH  13  14
ENDBRANCH  11  12
ENDBRANCH  10  11
ENDBRANCH   9  10
ENDBRANCH   8   9
ENDBRANCH   7   8
ENDBRANCH   6   7
ENDBRANCH   5   6
ENDBRANCH   3   5
ENDBRANCH   1   3
TORSDOF 14
ENDMDL
MODEL 14
REMARK VINA RESULT:      -4.9      9.738     11.841
REMARK  14 active torsions:
REMARK  status: ('A' for Active; 'I' for Inactive)
REMARK    1  A    between atoms: O_1  and  C_18 
REMARK    2  A    between atoms: C_3  and  C_4 
REMARK    3  A    between atoms: C_3  and  C_5 
REMARK    4  A    between atoms: C_4  and  C_6 
REMARK    5  A    between atoms: C_5  and  C_7 
REMARK    6  A    between atoms: C_6  and  C_8 
REMARK    7  A    between atoms: C_7  and  C_13 
REMARK    8  A    between atoms: C_8  and  C_15 
REMARK    9  A    between atoms: C_9  and  C_10 
REMARK   10  A    between atoms: C_9  and  C_11 
REMARK   11  A    between atoms: C_10  and  C_12 
REMARK   12  A    between atoms: C_11  and  C_14 
REMARK   13  A    between atoms: C_12  and  C_16 
REMARK   14  A    between atoms: C_15  and  C_18 
ROOT
HETATM    1  O   UNL     1      31.738   8.300  -9.231  1.00  0.00    -0.776 OA
HETATM    2  H   UNL     1      32.654   8.574  -9.074  1.00  0.00     0.167 HD
ENDROOT
BRANCH   1   3
HETATM    3  C   UNL     1      31.447   7.233 -10.004  1.00  0.00     0.139 C 
HETATM    4  O   UNL     1      31.738   6.107  -9.621  1.00  0.00    -0.650 OA
BRANCH   3   5
HETATM    5  C   UNL     1      30.763   7.455 -11.328  1.00  0.00     0.110 C 
BRANCH   5   6
HETATM    6  C   UNL     1      30.475   6.149 -12.085  1.00  0.00     0.010 C 
BRANCH   6   7
HETATM    7  C   UNL     1      30.998   6.221 -13.524  1.00  0.00     0.001 C 
BRANCH   7   8
HETATM    8  C   UNL     1      30.914   7.650 -14.070  1.00  0.00     0.000 C 
BRANCH   8   9
HETATM    9  C   UNL     1      30.913   7.656 -15.603  1.00  0.00     0.000 C 
BRANCH   9  10
HETATM   10  C   UNL     1      30.721   6.240 -16.159  1.00  0.00     0.004 C 
BRANCH  10  11
HETATM   11  C   UNL     1      31.859   5.870 -17.124  1.00  0.00     0.027 C 
BRANCH  11  12
HETATM   12  C   UNL     1      33.114   5.459 -16.394  1.00  0.00    -0.031 C 
HETATM   13  C   UNL     1      34.196   6.235 -16.190  1.00  0.00    -0.031 C 
BRANCH  13  14
HETATM   14  C   UNL     1      34.338   7.675 -16.620  1.00  0.00     0.027 C 
BRANCH  14  15
HETATM   15  C   UNL     1      35.578   8.301 -15.976  1.00  0.00     0.004 C 
BRANCH  15  16
HETATM   16  C   UNL     1      35.958   7.566 -14.685  1.00  0.00     0.000 C 
BRANCH  16  17
HETATM   17  C   UNL     1      35.626   8.413 -13.451  1.00  0.00    -0.000 C 
BRANCH  17  18
HETATM   18  C   UNL     1      34.280   7.999 -12.847  1.00  0.00    -0.005 C 
HETATM   19  C   UNL     1      34.379   6.639 -12.162  1.00  0.00     0.005 C 
ENDBRANCH  17  18
ENDBRANCH  16  17
ENDBRANCH  15  16
ENDBRANCH  14  15
ENDBRANCH  13  14
ENDBRANCH  11  12
ENDBRANCH  10  11
ENDBRANCH   9  10
ENDBRANCH   8   9
ENDBRANCH   7   8
ENDBRANCH   6   7
ENDBRANCH   5   6
ENDBRANCH   3   5
ENDBRANCH   1   3
TORSDOF 14
ENDMDL
MODEL 15
REMARK VINA RESULT:      -4.9      4.659      9.267
REMARK  14 active torsions:
REMARK  status: ('A' for Active; 'I' for Inactive)
REMARK    1  A    between atoms: O_1  and  C_18 
REMARK    2  A    between atoms: C_3  and  C_4 
REMARK    3  A    between atoms: C_3  and  C_5 
REMARK    4  A    between atoms: C_4  and  C_6 
REMARK    5  A    between atoms: C_5  and  C_7 
REMARK    6  A    between atoms: C_6  and  C_8 
REMARK    7  A    between atoms: C_7  and  C_13 
REMARK    8  A    between atoms: C_8  and  C_15 
REMARK    9  A    between atoms: C_9  and  C_10 
REMARK   10  A    between atoms: C_9  and  C_11 
REMARK   11  A    between atoms: C_10  and  C_12 
REMARK   12  A    between atoms: C_11  and  C_14 
REMARK   13  A    between atoms: C_12  and  C_16 
REMARK   14  A    between atoms: C_15  and  C_18 
ROOT
HETATM    1  O   UNL     1      31.403  15.658 -12.599  1.00  0.00    -0.776 OA
HETATM    2  H   UNL     1      31.400  14.693 -12.513  1.00  0.00     0.167 HD
ENDROOT
BRANCH   1   3
HETATM    3  C   UNL     1      30.273  16.380 -12.451  1.00  0.00     0.139 C 
HETATM    4  O   UNL     1      30.334  17.602 -12.408  1.00  0.00    -0.650 OA
BRANCH   3   5
HETATM    5  C   UNL     1      28.954  15.660 -12.343  1.00  0.00     0.110 C 
BRANCH   5   6
HETATM    6  C   UNL     1      29.066  14.298 -11.642  1.00  0.00     0.010 C 
BRANCH   6   7
HETATM    7  C   UNL     1      28.446  13.187 -12.497  1.00  0.00     0.001 C 
BRANCH   7   8
HETATM    8  C   UNL     1      26.916  13.200 -12.392  1.00  0.00     0.000 C 
BRANCH   8   9
HETATM    9  C   UNL     1      26.441  12.403 -11.172  1.00  0.00     0.000 C 
BRANCH   9  10
HETATM   10  C   UNL     1      25.065  11.775 -11.426  1.00  0.00     0.004 C 
BRANCH  10  11
HETATM   11  C   UNL     1      25.014  11.112 -12.812  1.00  0.00     0.027 C 
BRANCH  11  12
HETATM   12  C   UNL     1      23.932  11.700 -13.685  1.00  0.00    -0.031 C 
HETATM   13  C   UNL     1      24.086  12.109 -14.959  1.00  0.00    -0.031 C 
BRANCH  13  14
HETATM   14  C   UNL     1      25.359  12.019 -15.764  1.00  0.00     0.027 C 
BRANCH  14  15
HETATM   15  C   UNL     1      25.081  11.378 -17.127  1.00  0.00     0.004 C 
BRANCH  15  16
HETATM   16  C   UNL     1      24.225  12.299 -18.004  1.00  0.00     0.000 C 
BRANCH  16  17
HETATM   17  C   UNL     1      24.004  11.687 -19.393  1.00  0.00    -0.000 C 
BRANCH  17  18
HETATM   18  C   UNL     1      25.110  12.115 -20.364  1.00  0.00    -0.005 C 
HETATM   19  C   UNL     1      25.510  10.965 -21.283  1.00  0.00     0.005 C 
ENDBRANCH  17  18
ENDBRANCH  16  17
ENDBRANCH  15  16
ENDBRANCH  14  15
ENDBRANCH  13  14
ENDBRANCH  11  12
ENDBRANCH  10  11
ENDBRANCH   9  10
ENDBRANCH   8   9
ENDBRANCH   7   8
ENDBRANCH   6   7
ENDBRANCH   5   6
ENDBRANCH   3   5
ENDBRANCH   1   3
TORSDOF 14
ENDMDL
MODEL 16
REMARK VINA RESULT:      -4.8     37.923     39.066
REMARK  14 active torsions:
REMARK  status: ('A' for Active; 'I' for Inactive)
REMARK    1  A    between atoms: O_1  and  C_18 
REMARK    2  A    between atoms: C_3  and  C_4 
REMARK    3  A    between atoms: C_3  and  C_5 
REMARK    4  A    between atoms: C_4  and  C_6 
REMARK    5  A    between atoms: C_5  and  C_7 
REMARK    6  A    between atoms: C_6  and  C_8 
REMARK    7  A    between atoms: C_7  and  C_13 
REMARK    8  A    between atoms: C_8  and  C_15 
REMARK    9  A    between atoms: C_9  and  C_10 
REMARK   10  A    between atoms: C_9  and  C_11 
REMARK   11  A    between atoms: C_10  and  C_12 
REMARK   12  A    between atoms: C_11  and  C_14 
REMARK   13  A    between atoms: C_12  and  C_16 
REMARK   14  A    between atoms: C_15  and  C_18 
ROOT
HETATM    1  O   UNL     1      49.306 -17.215  -8.291  1.00  0.00    -0.776 OA
HETATM    2  H   UNL     1      50.248 -16.996  -8.339  1.00  0.00     0.167 HD
ENDROOT
BRANCH   1   3
HETATM    3  C   UNL     1      48.889 -18.482  -8.089  1.00  0.00     0.139 C 
HETATM    4  O   UNL     1      48.812 -18.923  -6.949  1.00  0.00    -0.650 OA
BRANCH   3   5
HETATM    5  C   UNL     1      48.523 -19.330  -9.279  1.00  0.00     0.110 C 
BRANCH   5   6
HETATM    6  C   UNL     1      49.019 -18.746 -10.611  1.00  0.00     0.010 C 
BRANCH   6   7
HETATM    7  C   UNL     1      47.935 -17.887 -11.272  1.00  0.00     0.001 C 
BRANCH   7   8
HETATM    8  C   UNL     1      48.407 -17.352 -12.628  1.00  0.00     0.000 C 
BRANCH   8   9
HETATM    9  C   UNL     1      49.219 -18.409 -13.385  1.00  0.00     0.000 C 
BRANCH   9  10
HETATM   10  C   UNL     1      48.631 -18.663 -14.778  1.00  0.00     0.004 C 
BRANCH  10  11
HETATM   11  C   UNL     1      48.306 -20.153 -14.974  1.00  0.00     0.027 C 
BRANCH  11  12
HETATM   12  C   UNL     1      48.414 -20.933 -13.686  1.00  0.00    -0.031 C 
HETATM   13  C   UNL     1      47.384 -21.292 -12.896  1.00  0.00    -0.031 C 
BRANCH  13  14
HETATM   14  C   UNL     1      45.926 -21.017 -13.172  1.00  0.00     0.027 C 
BRANCH  14  15
HETATM   15  C   UNL     1      45.359 -20.057 -12.122  1.00  0.00     0.004 C 
BRANCH  15  16
HETATM   16  C   UNL     1      44.391 -19.053 -12.758  1.00  0.00     0.000 C 
BRANCH  16  17
HETATM   17  C   UNL     1      45.109 -18.176 -13.791  1.00  0.00    -0.000 C 
BRANCH  17  18
HETATM   18  C   UNL     1      44.330 -18.132 -15.111  1.00  0.00    -0.005 C 
HETATM   19  C   UNL     1      45.150 -18.722 -16.254  1.00  0.00     0.005 C 
ENDBRANCH  17  18
ENDBRANCH  16  17
ENDBRANCH  15  16
ENDBRANCH  14  15
ENDBRANCH  13  14
ENDBRANCH  11  12
ENDBRANCH  10  11
ENDBRANCH   9  10
ENDBRANCH   8   9
ENDBRANCH   7   8
ENDBRANCH   6   7
ENDBRANCH   5   6
ENDBRANCH   3   5
ENDBRANCH   1   3
TORSDOF 14
ENDMDL
MODEL 17
REMARK VINA RESULT:      -4.8      5.783      9.373
REMARK  14 active torsions:
REMARK  status: ('A' for Active; 'I' for Inactive)
REMARK    1  A    between atoms: O_1  and  C_18 
REMARK    2  A    between atoms: C_3  and  C_4 
REMARK    3  A    between atoms: C_3  and  C_5 
REMARK    4  A    between atoms: C_4  and  C_6 
REMARK    5  A    between atoms: C_5  and  C_7 
REMARK    6  A    between atoms: C_6  and  C_8 
REMARK    7  A    between atoms: C_7  and  C_13 
REMARK    8  A    between atoms: C_8  and  C_15 
REMARK    9  A    between atoms: C_9  and  C_10 
REMARK   10  A    between atoms: C_9  and  C_11 
REMARK   11  A    between atoms: C_10  and  C_12 
REMARK   12  A    between atoms: C_11  and  C_14 
REMARK   13  A    between atoms: C_12  and  C_16 
REMARK   14  A    between atoms: C_15  and  C_18 
ROOT
HETATM    1  O   UNL     1      30.139   7.480 -16.859  1.00  0.00    -0.776 OA
HETATM    2  H   UNL     1      30.382   6.592 -17.158  1.00  0.00     0.167 HD
ENDROOT
BRANCH   1   3
HETATM    3  C   UNL     1      30.542   7.954 -15.661  1.00  0.00     0.139 C 
HETATM    4  O   UNL     1      30.783   7.175 -14.749  1.00  0.00    -0.650 OA
BRANCH   3   5
HETATM    5  C   UNL     1      30.687   9.442 -15.476  1.00  0.00     0.110 C 
BRANCH   5   6
HETATM    6  C   UNL     1      29.641  10.252 -16.256  1.00  0.00     0.010 C 
BRANCH   6   7
HETATM    7  C   UNL     1      28.554  10.794 -15.321  1.00  0.00     0.001 C 
BRANCH   7   8
HETATM    8  C   UNL     1      27.300  11.194 -16.106  1.00  0.00     0.000 C 
BRANCH   8   9
HETATM    9  C   UNL     1      26.090  11.341 -15.176  1.00  0.00     0.000 C 
BRANCH   9  10
HETATM   10  C   UNL     1      24.855  11.816 -15.949  1.00  0.00     0.004 C 
BRANCH  10  11
HETATM   11  C   UNL     1      24.925  11.372 -17.420  1.00  0.00     0.027 C 
BRANCH  11  12
HETATM   12  C   UNL     1      24.134  12.283 -18.328  1.00  0.00    -0.031 C 
HETATM   13  C   UNL     1      24.094  12.210 -19.672  1.00  0.00    -0.031 C 
BRANCH  13  14
HETATM   14  C   UNL     1      24.801  11.181 -20.519  1.00  0.00     0.027 C 
BRANCH  14  15
HETATM   15  C   UNL     1      26.043  11.793 -21.171  1.00  0.00     0.004 C 
BRANCH  15  16
HETATM   16  C   UNL     1      27.316  11.066 -20.721  1.00  0.00     0.000 C 
BRANCH  16  17
HETATM   17  C   UNL     1      27.964  11.779 -19.528  1.00  0.00    -0.000 C 
BRANCH  17  18
HETATM   18  C   UNL     1      27.725  13.292 -19.597  1.00  0.00    -0.005 C 
HETATM   19  C   UNL     1      28.046  13.961 -18.264  1.00  0.00     0.005 C 
ENDBRANCH  17  18
ENDBRANCH  16  17
ENDBRANCH  15  16
ENDBRANCH  14  15
ENDBRANCH  13  14
ENDBRANCH  11  12
ENDBRANCH  10  11
ENDBRANCH   9  10
ENDBRANCH   8   9
ENDBRANCH   7   8
ENDBRANCH   6   7
ENDBRANCH   5   6
ENDBRANCH   3   5
ENDBRANCH   1   3
TORSDOF 14
ENDMDL
MODEL 18
REMARK VINA RESULT:      -4.8      9.752     12.781
REMARK  14 active torsions:
REMARK  status: ('A' for Active; 'I' for Inactive)
REMARK    1  A    between atoms: O_1  and  C_18 
REMARK    2  A    between atoms: C_3  and  C_4 
REMARK    3  A    between atoms: C_3  and  C_5 
REMARK    4  A    between atoms: C_4  and  C_6 
REMARK    5  A    between atoms: C_5  and  C_7 
REMARK    6  A    between atoms: C_6  and  C_8 
REMARK    7  A    between atoms: C_7  and  C_13 
REMARK    8  A    between atoms: C_8  and  C_15 
REMARK    9  A    between atoms: C_9  and  C_10 
REMARK   10  A    between atoms: C_9  and  C_11 
REMARK   11  A    between atoms: C_10  and  C_12 
REMARK   12  A    between atoms: C_11  and  C_14 
REMARK   13  A    between atoms: C_12  and  C_16 
REMARK   14  A    between atoms: C_15  and  C_18 
ROOT
HETATM    1  O   UNL     1      31.588   7.668 -14.573  1.00  0.00    -0.776 OA
HETATM    2  H   UNL     1      31.338   8.415 -15.136  1.00  0.00     0.167 HD
ENDROOT
BRANCH   1   3
HETATM    3  C   UNL     1      31.748   6.428 -15.082  1.00  0.00     0.139 C 
HETATM    4  O   UNL     1      32.511   5.641 -14.536  1.00  0.00    -0.650 OA
BRANCH   3   5
HETATM    5  C   UNL     1      30.979   6.039 -16.317  1.00  0.00     0.110 C 
BRANCH   5   6
HETATM    6  C   UNL     1      30.408   7.246 -17.077  1.00  0.00     0.010 C 
BRANCH   6   7
HETATM    7  C   UNL     1      31.075   7.399 -18.449  1.00  0.00     0.001 C 
BRANCH   7   8
HETATM    8  C   UNL     1      31.077   6.069 -19.211  1.00  0.00     0.000 C 
BRANCH   8   9
HETATM    9  C   UNL     1      31.221   6.299 -20.720  1.00  0.00     0.000 C 
BRANCH   9  10
HETATM   10  C   UNL     1      31.055   7.782 -21.070  1.00  0.00     0.004 C 
BRANCH  10  11
HETATM   11  C   UNL     1      32.206   8.265 -21.969  1.00  0.00     0.027 C 
BRANCH  11  12
HETATM   12  C   UNL     1      32.964   7.117 -22.589  1.00  0.00    -0.031 C 
HETATM   13  C   UNL     1      34.218   6.740 -22.271  1.00  0.00    -0.031 C 
BRANCH  13  14
HETATM   14  C   UNL     1      35.082   7.370 -21.206  1.00  0.00     0.027 C 
BRANCH  14  15
HETATM   15  C   UNL     1      34.982   6.574 -19.901  1.00  0.00     0.004 C 
BRANCH  15  16
HETATM   16  C   UNL     1      35.351   7.445 -18.695  1.00  0.00     0.000 C 
BRANCH  16  17
HETATM   17  C   UNL     1      34.557   7.028 -17.451  1.00  0.00    -0.000 C 
BRANCH  17  18
HETATM   18  C   UNL     1      34.808   7.996 -16.289  1.00  0.00    -0.005 C 
HETATM   19  C   UNL     1      35.589   7.318 -15.168  1.00  0.00     0.005 C 
ENDBRANCH  17  18
ENDBRANCH  16  17
ENDBRANCH  15  16
ENDBRANCH  14  15
ENDBRANCH  13  14
ENDBRANCH  11  12
ENDBRANCH  10  11
ENDBRANCH   9  10
ENDBRANCH   8   9
ENDBRANCH   7   8
ENDBRANCH   6   7
ENDBRANCH   5   6
ENDBRANCH   3   5
ENDBRANCH   1   3
TORSDOF 14
ENDMDL
MODEL 19
REMARK VINA RESULT:      -4.7      6.213     10.796
REMARK  14 active torsions:
REMARK  status: ('A' for Active; 'I' for Inactive)
REMARK    1  A    between atoms: O_1  and  C_18 
REMARK    2  A    between atoms: C_3  and  C_4 
REMARK    3  A    between atoms: C_3  and  C_5 
REMARK    4  A    between atoms: C_4  and  C_6 
REMARK    5  A    between atoms: C_5  and  C_7 
REMARK    6  A    between atoms: C_6  and  C_8 
REMARK    7  A    between atoms: C_7  and  C_13 
REMARK    8  A    between atoms: C_8  and  C_15 
REMARK    9  A    between atoms: C_9  and  C_10 
REMARK   10  A    between atoms: C_9  and  C_11 
REMARK   11  A    between atoms: C_10  and  C_12 
REMARK   12  A    between atoms: C_11  and  C_14 
REMARK   13  A    between atoms: C_12  and  C_16 
REMARK   14  A    between atoms: C_15  and  C_18 
ROOT
HETATM    1  O   UNL     1      28.621  15.768 -16.784  1.00  0.00    -0.776 OA
HETATM    2  H   UNL     1      27.936  16.146 -16.214  1.00  0.00     0.167 HD
ENDROOT
BRANCH   1   3
HETATM    3  C   UNL     1      29.156  14.555 -16.534  1.00  0.00     0.139 C 
HETATM    4  O   UNL     1      30.141  14.462 -15.813  1.00  0.00    -0.650 OA
BRANCH   3   5
HETATM    5  C   UNL     1      28.521  13.335 -17.150  1.00  0.00     0.110 C 
BRANCH   5   6
HETATM    6  C   UNL     1      26.986  13.372 -17.117  1.00  0.00     0.010 C 
BRANCH   6   7
HETATM    7  C   UNL     1      26.433  12.367 -16.100  1.00  0.00     0.001 C 
BRANCH   7   8
HETATM    8  C   UNL     1      24.977  12.008 -16.416  1.00  0.00     0.000 C 
BRANCH   8   9
HETATM    9  C   UNL     1      24.886  11.130 -17.670  1.00  0.00     0.000 C 
BRANCH   9  10
HETATM   10  C   UNL     1      23.932  11.742 -18.702  1.00  0.00     0.004 C 
BRANCH  10  11
HETATM   11  C   UNL     1      24.676  12.077 -20.005  1.00  0.00     0.027 C 
BRANCH  11  12
HETATM   12  C   UNL     1      25.972  11.314 -20.134  1.00  0.00    -0.031 C 
HETATM   13  C   UNL     1      27.121  11.796 -20.645  1.00  0.00    -0.031 C 
BRANCH  13  14
HETATM   14  C   UNL     1      27.337  13.202 -21.149  1.00  0.00     0.027 C 
BRANCH  14  15
HETATM   15  C   UNL     1      26.933  13.305 -22.623  1.00  0.00     0.004 C 
BRANCH  15  16
HETATM   16  C   UNL     1      27.323  12.037 -23.391  1.00  0.00     0.000 C 
BRANCH  16  17
HETATM   17  C   UNL     1      26.217  11.624 -24.369  1.00  0.00    -0.000 C 
BRANCH  17  18
HETATM   18  C   UNL     1      24.909  11.328 -23.626  1.00  0.00    -0.005 C 
HETATM   19  C   UNL     1      23.746  12.112 -24.226  1.00  0.00     0.005 C 
ENDBRANCH  17  18
ENDBRANCH  16  17
ENDBRANCH  15  16
ENDBRANCH  14  15
ENDBRANCH  13  14
ENDBRANCH  11  12
ENDBRANCH  10  11
ENDBRANCH   9  10
ENDBRANCH   8   9
ENDBRANCH   7   8
ENDBRANCH   6   7
ENDBRANCH   5   6
ENDBRANCH   3   5
ENDBRANCH   1   3
TORSDOF 14
ENDMDL
MODEL 20
REMARK VINA RESULT:      -4.7      4.634     10.670
REMARK  14 active torsions:
REMARK  status: ('A' for Active; 'I' for Inactive)
REMARK    1  A    between atoms: O_1  and  C_18 
REMARK    2  A    between atoms: C_3  and  C_4 
REMARK    3  A    between atoms: C_3  and  C_5 
REMARK    4  A    between atoms: C_4  and  C_6 
REMARK    5  A    between atoms: C_5  and  C_7 
REMARK    6  A    between atoms: C_6  and  C_8 
REMARK    7  A    between atoms: C_7  and  C_13 
REMARK    8  A    between atoms: C_8  and  C_15 
REMARK    9  A    between atoms: C_9  and  C_10 
REMARK   10  A    between atoms: C_9  and  C_11 
REMARK   11  A    between atoms: C_10  and  C_12 
REMARK   12  A    between atoms: C_11  and  C_14 
REMARK   13  A    between atoms: C_12  and  C_16 
REMARK   14  A    between atoms: C_15  and  C_18 
ROOT
HETATM    1  O   UNL     1      28.509   9.744 -10.926  1.00  0.00    -0.776 OA
HETATM    2  H   UNL     1      28.440   9.269 -11.767  1.00  0.00     0.167 HD
ENDROOT
BRANCH   1   3
HETATM    3  C   UNL     1      28.753  11.070 -10.885  1.00  0.00     0.139 C 
HETATM    4  O   UNL     1      29.777  11.484 -10.358  1.00  0.00    -0.650 OA
BRANCH   3   5
HETATM    5  C   UNL     1      27.752  12.016 -11.495  1.00  0.00     0.110 C 
BRANCH   5   6
HETATM    6  C   UNL     1      26.316  11.774 -11.005  1.00  0.00     0.010 C 
BRANCH   6   7
HETATM    7  C   UNL     1      25.450  11.169 -12.116  1.00  0.00     0.001 C 
BRANCH   7   8
HETATM    8  C   UNL     1      25.279  12.153 -13.278  1.00  0.00     0.000 C 
BRANCH   8   9
HETATM    9  C   UNL     1      24.098  11.753 -14.170  1.00  0.00     0.000 C 
BRANCH   9  10
HETATM   10  C   UNL     1      24.436  11.945 -15.653  1.00  0.00     0.004 C 
BRANCH  10  11
HETATM   11  C   UNL     1      25.957  11.910 -15.876  1.00  0.00     0.027 C 
BRANCH  11  12
HETATM   12  C   UNL     1      26.417  12.981 -16.835  1.00  0.00    -0.031 C 
HETATM   13  C   UNL     1      26.530  12.845 -18.171  1.00  0.00    -0.031 C 
BRANCH  13  14
HETATM   14  C   UNL     1      26.179  11.608 -18.961  1.00  0.00     0.027 C 
BRANCH  14  15
HETATM   15  C   UNL     1      25.452  11.992 -20.253  1.00  0.00     0.004 C 
BRANCH  15  16
HETATM   16  C   UNL     1      25.635  10.916 -21.329  1.00  0.00     0.000 C 
BRANCH  16  17
HETATM   17  C   UNL     1      25.589  11.529 -22.734  1.00  0.00    -0.000 C 
BRANCH  17  18
HETATM   18  C   UNL     1      24.186  12.057 -23.057  1.00  0.00    -0.005 C 
HETATM   19  C   UNL     1      23.994  12.223 -24.561  1.00  0.00     0.005 C 
ENDBRANCH  17  18
ENDBRANCH  16  17
ENDBRANCH  15  16
ENDBRANCH  14  15
ENDBRANCH  13  14
ENDBRANCH  11  12
ENDBRANCH  10  11
ENDBRANCH   9  10
ENDBRANCH   8   9
ENDBRANCH   7   8
ENDBRANCH   6   7
ENDBRANCH   5   6
ENDBRANCH   3   5
ENDBRANCH   1   3
TORSDOF 14
ENDMDL
