MODEL 1
REMARK VINA RESULT:      -5.5      0.000      0.000
REMARK  15 active torsions:
REMARK  status: ('A' for Active; 'I' for Inactive)
REMARK    1  A    between atoms: O_1  and  C_22 
REMARK    2  A    between atoms: C_3  and  C_4 
REMARK    3  A    between atoms: C_3  and  C_5 
REMARK    4  A    between atoms: C_4  and  C_6 
REMARK    5  A    between atoms: C_5  and  C_7 
REMARK    6  A    between atoms: C_9  and  C_10 
REMARK    7  A    between atoms: C_9  and  C_13 
REMARK    8  A    between atoms: C_10  and  C_14 
REMARK    9  A    between atoms: C_11  and  C_12 
REMARK   10  A    between atoms: C_12  and  C_16 
REMARK   11  A    between atoms: C_13  and  C_22 
REMARK   12  A    between atoms: C_15  and  C_17 
REMARK   13  A    between atoms: C_15  and  C_20 
REMARK   14  A    between atoms: C_18  and  C_19 
REMARK   15  A    between atoms: C_18  and  C_21 
ROOT
HETATM    1  O   UNL     1      26.474  11.132 -10.376  1.00  0.00    -0.776 OA
HETATM    2  H   UNL     1      26.656  10.216 -10.123  1.00  0.00     0.167 HD
ENDROOT
BRANCH   1   3
HETATM    3  C   UNL     1      25.297  11.489 -10.933  1.00  0.00     0.139 C 
HETATM    4  O   UNL     1      24.418  11.985 -10.244  1.00  0.00    -0.650 OA
BRANCH   3   5
HETATM    5  C   UNL     1      25.067  11.261 -12.402  1.00  0.00     0.110 C 
BRANCH   5   6
HETATM    6  C   UNL     1      24.293  12.414 -13.057  1.00  0.00     0.014 C 
BRANCH   6   7
HETATM    7  C   UNL     1      23.797  12.068 -14.467  1.00  0.00     0.027 C 
BRANCH   7   8
HETATM    8  C   UNL     1      24.858  11.287 -15.201  1.00  0.00    -0.030 C 
HETATM    9  C   UNL     1      25.195  11.460 -16.493  1.00  0.00    -0.027 C 
BRANCH   9  10
HETATM   10  C   UNL     1      24.590  12.479 -17.425  1.00  0.00     0.053 C 
BRANCH  10  11
HETATM   11  C   UNL     1      24.177  11.845 -18.735  1.00  0.00    -0.027 C 
HETATM   12  C   UNL     1      24.978  11.466 -19.752  1.00  0.00    -0.027 C 
BRANCH  12  13
HETATM   13  C   UNL     1      26.481  11.569 -19.810  1.00  0.00     0.053 C 
BRANCH  13  14
HETATM   14  C   UNL     1      26.886  12.804 -20.579  1.00  0.00    -0.027 C 
HETATM   15  C   UNL     1      27.793  13.711 -20.164  1.00  0.00    -0.027 C 
BRANCH  15  16
HETATM   16  C   UNL     1      28.534  13.640 -18.854  1.00  0.00     0.053 C 
BRANCH  16  17
HETATM   17  C   UNL     1      27.675  14.110 -17.707  1.00  0.00    -0.027 C 
HETATM   18  C   UNL     1      28.001  15.131 -16.895  1.00  0.00    -0.030 C 
BRANCH  18  19
HETATM   19  C   UNL     1      29.268  15.943 -17.001  1.00  0.00     0.027 C 
BRANCH  19  20
HETATM   20  C   UNL     1      28.921  17.395 -17.347  1.00  0.00     0.004 C 
BRANCH  20  21
HETATM   21  C   UNL     1      29.858  17.947 -18.426  1.00  0.00    -0.000 C 
BRANCH  21  22
HETATM   22  C   UNL     1      30.034  16.937 -19.566  1.00  0.00    -0.005 C 
HETATM   23  C   UNL     1      29.065  17.222 -20.710  1.00  0.00     0.005 C 
ENDBRANCH  21  22
ENDBRANCH  20  21
ENDBRANCH  19  20
ENDBRANCH  18  19
ENDBRANCH  16  17
ENDBRANCH  15  16
ENDBRANCH  13  14
ENDBRANCH  12  13
ENDBRANCH  10  11
ENDBRANCH   9  10
ENDBRANCH   7   8
ENDBRANCH   6   7
ENDBRANCH   5   6
ENDBRANCH   3   5
ENDBRANCH   1   3
TORSDOF 15
ENDMDL
MODEL 2
REMARK VINA RESULT:      -5.4      3.752      6.126
REMARK  15 active torsions:
REMARK  status: ('A' for Active; 'I' for Inactive)
REMARK    1  A    between atoms: O_1  and  C_22 
REMARK    2  A    between atoms: C_3  and  C_4 
REMARK    3  A    between atoms: C_3  and  C_5 
REMARK    4  A    between atoms: C_4  and  C_6 
REMARK    5  A    between atoms: C_5  and  C_7 
REMARK    6  A    between atoms: C_9  and  C_10 
REMARK    7  A    between atoms: C_9  and  C_13 
REMARK    8  A    between atoms: C_10  and  C_14 
REMARK    9  A    between atoms: C_11  and  C_12 
REMARK   10  A    between atoms: C_12  and  C_16 
REMARK   11  A    between atoms: C_13  and  C_22 
REMARK   12  A    between atoms: C_15  and  C_17 
REMARK   13  A    between atoms: C_15  and  C_20 
REMARK   14  A    between atoms: C_18  and  C_19 
REMARK   15  A    between atoms: C_18  and  C_21 
ROOT
HETATM    1  O   UNL     1      23.999  12.564  -5.827  1.00  0.00    -0.776 OA
HETATM    2  H   UNL     1      23.272  12.121  -5.367  1.00  0.00     0.167 HD
ENDROOT
BRANCH   1   3
HETATM    3  C   UNL     1      24.631  11.982  -6.868  1.00  0.00     0.139 C 
HETATM    4  O   UNL     1      25.251  10.941  -6.703  1.00  0.00    -0.650 OA
BRANCH   3   5
HETATM    5  C   UNL     1      24.579  12.622  -8.228  1.00  0.00     0.110 C 
BRANCH   5   6
HETATM    6  C   UNL     1      24.350  11.598  -9.348  1.00  0.00     0.014 C 
BRANCH   6   7
HETATM    7  C   UNL     1      25.360  11.739 -10.494  1.00  0.00     0.027 C 
BRANCH   7   8
HETATM    8  C   UNL     1      26.681  12.223  -9.951  1.00  0.00    -0.030 C 
HETATM    9  C   UNL     1      27.858  12.162 -10.603  1.00  0.00    -0.027 C 
BRANCH   9  10
HETATM   10  C   UNL     1      28.058  11.624 -11.997  1.00  0.00     0.053 C 
BRANCH  10  11
HETATM   11  C   UNL     1      27.892  12.712 -13.034  1.00  0.00    -0.027 C 
HETATM   12  C   UNL     1      27.167  12.658 -14.170  1.00  0.00    -0.027 C 
BRANCH  12  13
HETATM   13  C   UNL     1      26.334  11.501 -14.662  1.00  0.00     0.053 C 
BRANCH  13  14
HETATM   14  C   UNL     1      24.866  11.845 -14.569  1.00  0.00    -0.027 C 
HETATM   15  C   UNL     1      24.099  12.246 -15.603  1.00  0.00    -0.027 C 
BRANCH  15  16
HETATM   16  C   UNL     1      24.595  12.431 -17.013  1.00  0.00     0.053 C 
BRANCH  16  17
HETATM   17  C   UNL     1      24.455  11.163 -17.818  1.00  0.00    -0.027 C 
HETATM   18  C   UNL     1      24.546  11.112 -19.159  1.00  0.00    -0.030 C 
BRANCH  18  19
HETATM   19  C   UNL     1      24.788  12.304 -20.050  1.00  0.00     0.027 C 
BRANCH  19  20
HETATM   20  C   UNL     1      24.229  12.023 -21.449  1.00  0.00     0.004 C 
BRANCH  20  21
HETATM   21  C   UNL     1      25.222  11.212 -22.290  1.00  0.00    -0.000 C 
BRANCH  21  22
HETATM   22  C   UNL     1      24.746  11.105 -23.743  1.00  0.00    -0.005 C 
HETATM   23  C   UNL     1      23.800  12.248 -24.100  1.00  0.00     0.005 C 
ENDBRANCH  21  22
ENDBRANCH  20  21
ENDBRANCH  19  20
ENDBRANCH  18  19
ENDBRANCH  16  17
ENDBRANCH  15  16
ENDBRANCH  13  14
ENDBRANCH  12  13
ENDBRANCH  10  11
ENDBRANCH   9  10
ENDBRANCH   7   8
ENDBRANCH   6   7
ENDBRANCH   5   6
ENDBRANCH   3   5
ENDBRANCH   1   3
TORSDOF 15
ENDMDL
MODEL 3
REMARK VINA RESULT:      -5.3      5.023      8.736
REMARK  15 active torsions:
REMARK  status: ('A' for Active; 'I' for Inactive)
REMARK    1  A    between atoms: O_1  and  C_22 
REMARK    2  A    between atoms: C_3  and  C_4 
REMARK    3  A    between atoms: C_3  and  C_5 
REMARK    4  A    between atoms: C_4  and  C_6 
REMARK    5  A    between atoms: C_5  and  C_7 
REMARK    6  A    between atoms: C_9  and  C_10 
REMARK    7  A    between atoms: C_9  and  C_13 
REMARK    8  A    between atoms: C_10  and  C_14 
REMARK    9  A    between atoms: C_11  and  C_12 
REMARK   10  A    between atoms: C_12  and  C_16 
REMARK   11  A    between atoms: C_13  and  C_22 
REMARK   12  A    between atoms: C_15  and  C_17 
REMARK   13  A    between atoms: C_15  and  C_20 
REMARK   14  A    between atoms: C_18  and  C_19 
REMARK   15  A    between atoms: C_18  and  C_21 
ROOT
HETATM    1  O   UNL     1      29.400  17.049 -21.248  1.00  0.00    -0.776 OA
HETATM    2  H   UNL     1      30.305  17.381 -21.161  1.00  0.00     0.167 HD
ENDROOT
BRANCH   1   3
HETATM    3  C   UNL     1      29.015  16.331 -22.324  1.00  0.00     0.139 C 
HETATM    4  O   UNL     1      29.291  16.719 -23.450  1.00  0.00    -0.650 OA
BRANCH   3   5
HETATM    5  C   UNL     1      28.235  15.059 -22.134  1.00  0.00     0.110 C 
BRANCH   5   6
HETATM    6  C   UNL     1      28.354  14.115 -23.339  1.00  0.00     0.014 C 
BRANCH   6   7
HETATM    7  C   UNL     1      28.206  12.639 -22.950  1.00  0.00     0.027 C 
BRANCH   7   8
HETATM    8  C   UNL     1      28.467  11.768 -24.154  1.00  0.00    -0.030 C 
HETATM    9  C   UNL     1      27.775  11.810 -25.308  1.00  0.00    -0.027 C 
BRANCH   9  10
HETATM   10  C   UNL     1      26.635  12.750 -25.610  1.00  0.00     0.053 C 
BRANCH  10  11
HETATM   11  C   UNL     1      25.350  11.991 -25.859  1.00  0.00    -0.027 C 
HETATM   12  C   UNL     1      24.408  11.654 -24.955  1.00  0.00    -0.027 C 
BRANCH  12  13
HETATM   13  C   UNL     1      24.406  11.977 -23.482  1.00  0.00     0.053 C 
BRANCH  13  14
HETATM   14  C   UNL     1      25.091  10.873 -22.711  1.00  0.00    -0.027 C 
HETATM   15  C   UNL     1      25.498  10.963 -21.428  1.00  0.00    -0.027 C 
BRANCH  15  16
HETATM   16  C   UNL     1      25.345  12.191 -20.568  1.00  0.00     0.053 C 
BRANCH  16  17
HETATM   17  C   UNL     1      23.998  12.228 -19.892  1.00  0.00    -0.027 C 
HETATM   18  C   UNL     1      23.773  11.780 -18.644  1.00  0.00    -0.030 C 
BRANCH  18  19
HETATM   19  C   UNL     1      24.820  11.167 -17.748  1.00  0.00     0.027 C 
BRANCH  19  20
HETATM   20  C   UNL     1      25.216  12.170 -16.660  1.00  0.00     0.004 C 
BRANCH  20  21
HETATM   21  C   UNL     1      25.132  11.539 -15.266  1.00  0.00    -0.000 C 
BRANCH  21  22
HETATM   22  C   UNL     1      23.941  12.101 -14.482  1.00  0.00    -0.005 C 
HETATM   23  C   UNL     1      24.266  12.220 -12.996  1.00  0.00     0.005 C 
ENDBRANCH  21  22
ENDBRANCH  20  21
ENDBRANCH  19  20
ENDBRANCH  18  19
ENDBRANCH  16  17
ENDBRANCH  15  16
ENDBRANCH  13  14
ENDBRANCH  12  13
ENDBRANCH  10  11
ENDBRANCH   9  10
ENDBRANCH   7   8
ENDBRANCH   6   7
ENDBRANCH   5   6
ENDBRANCH   3   5
ENDBRANCH   1   3
TORSDOF 15
ENDMDL
MODEL 4
REMARK VINA RESULT:      -5.2      2.031      3.175
REMARK  15 active torsions:
REMARK  status: ('A' for Active; 'I' for Inactive)
REMARK    1  A    between atoms: O_1  and  C_22 
REMARK    2  A    between atoms: C_3  and  C_4 
REMARK    3  A    between atoms: C_3  and  C_5 
REMARK    4  A    between atoms: C_4  and  C_6 
REMARK    5  A    between atoms: C_5  and  C_7 
REMARK    6  A    between atoms: C_9  and  C_10 
REMARK    7  A    between atoms: C_9  and  C_13 
REMARK    8  A    between atoms: C_10  and  C_14 
REMARK    9  A    between atoms: C_11  and  C_12 
REMARK   10  A    between atoms: C_12  and  C_16 
REMARK   11  A    between atoms: C_13  and  C_22 
REMARK   12  A    between atoms: C_15  and  C_17 
REMARK   13  A    between atoms: C_15  and  C_20 
REMARK   14  A    between atoms: C_18  and  C_19 
REMARK   15  A    between atoms: C_18  and  C_21 
ROOT
HETATM    1  O   UNL     1      23.785  12.699 -11.704  1.00  0.00    -0.776 OA
HETATM    2  H   UNL     1      22.942  13.173 -11.732  1.00  0.00     0.167 HD
ENDROOT
BRANCH   1   3
HETATM    3  C   UNL     1      24.588  12.630 -12.787  1.00  0.00     0.139 C 
HETATM    4  O   UNL     1      25.762  12.962 -12.702  1.00  0.00    -0.650 OA
BRANCH   3   5
HETATM    5  C   UNL     1      24.032  12.153 -14.100  1.00  0.00     0.110 C 
BRANCH   5   6
HETATM    6  C   UNL     1      24.862  11.013 -14.707  1.00  0.00     0.014 C 
BRANCH   6   7
HETATM    7  C   UNL     1      25.531  11.407 -16.030  1.00  0.00     0.027 C 
BRANCH   7   8
HETATM    8  C   UNL     1      24.759  12.531 -16.674  1.00  0.00    -0.030 C 
HETATM    9  C   UNL     1      24.158  12.470 -17.878  1.00  0.00    -0.027 C 
BRANCH   9  10
HETATM   10  C   UNL     1      24.131  11.263 -18.782  1.00  0.00     0.053 C 
BRANCH  10  11
HETATM   11  C   UNL     1      24.517  11.629 -20.198  1.00  0.00    -0.027 C 
HETATM   12  C   UNL     1      25.755  11.638 -20.734  1.00  0.00    -0.027 C 
BRANCH  12  13
HETATM   13  C   UNL     1      27.044  11.262 -20.049  1.00  0.00     0.053 C 
BRANCH  13  14
HETATM   14  C   UNL     1      27.641  12.473 -19.372  1.00  0.00    -0.027 C 
HETATM   15  C   UNL     1      28.607  12.435 -18.431  1.00  0.00    -0.027 C 
BRANCH  15  16
HETATM   16  C   UNL     1      29.228  11.172 -17.896  1.00  0.00     0.053 C 
BRANCH  16  17
HETATM   17  C   UNL     1      30.407  11.471 -17.003  1.00  0.00    -0.027 C 
HETATM   18  C   UNL     1      30.308  11.692 -15.680  1.00  0.00    -0.030 C 
BRANCH  18  19
HETATM   19  C   UNL     1      29.018  11.687 -14.901  1.00  0.00     0.027 C 
BRANCH  19  20
HETATM   20  C   UNL     1      28.788  13.067 -14.276  1.00  0.00     0.004 C 
BRANCH  20  21
HETATM   21  C   UNL     1      28.028  13.991 -15.233  1.00  0.00    -0.000 C 
BRANCH  21  22
HETATM   22  C   UNL     1      28.886  15.200 -15.622  1.00  0.00    -0.005 C 
HETATM   23  C   UNL     1      28.416  15.808 -16.940  1.00  0.00     0.005 C 
ENDBRANCH  21  22
ENDBRANCH  20  21
ENDBRANCH  19  20
ENDBRANCH  18  19
ENDBRANCH  16  17
ENDBRANCH  15  16
ENDBRANCH  13  14
ENDBRANCH  12  13
ENDBRANCH  10  11
ENDBRANCH   9  10
ENDBRANCH   7   8
ENDBRANCH   6   7
ENDBRANCH   5   6
ENDBRANCH   3   5
ENDBRANCH   1   3
TORSDOF 15
ENDMDL
MODEL 5
REMARK VINA RESULT:      -5.2     21.119     23.952
REMARK  15 active torsions:
REMARK  status: ('A' for Active; 'I' for Inactive)
REMARK    1  A    between atoms: O_1  and  C_22 
REMARK    2  A    between atoms: C_3  and  C_4 
REMARK    3  A    between atoms: C_3  and  C_5 
REMARK    4  A    between atoms: C_4  and  C_6 
REMARK    5  A    between atoms: C_5  and  C_7 
REMARK    6  A    between atoms: C_9  and  C_10 
REMARK    7  A    between atoms: C_9  and  C_13 
REMARK    8  A    between atoms: C_10  and  C_14 
REMARK    9  A    between atoms: C_11  and  C_12 
REMARK   10  A    between atoms: C_12  and  C_16 
REMARK   11  A    between atoms: C_13  and  C_22 
REMARK   12  A    between atoms: C_15  and  C_17 
REMARK   13  A    between atoms: C_15  and  C_20 
REMARK   14  A    between atoms: C_18  and  C_19 
REMARK   15  A    between atoms: C_18  and  C_21 
ROOT
HETATM    1  O   UNL     1      10.519  -2.533 -21.816  1.00  0.00    -0.776 OA
HETATM    2  H   UNL     1       9.632  -2.178 -21.667  1.00  0.00     0.167 HD
ENDROOT
BRANCH   1   3
HETATM    3  C   UNL     1      11.622  -1.848 -21.443  1.00  0.00     0.139 C 
HETATM    4  O   UNL     1      12.426  -1.477 -22.285  1.00  0.00    -0.650 OA
BRANCH   3   5
HETATM    5  C   UNL     1      11.863  -1.555 -19.988  1.00  0.00     0.110 C 
BRANCH   5   6
HETATM    6  C   UNL     1      10.997  -2.424 -19.065  1.00  0.00     0.014 C 
BRANCH   6   7
HETATM    7  C   UNL     1      10.865  -1.839 -17.653  1.00  0.00     0.027 C 
BRANCH   7   8
HETATM    8  C   UNL     1      12.201  -1.311 -17.195  1.00  0.00    -0.030 C 
HETATM    9  C   UNL     1      12.724  -1.482 -15.966  1.00  0.00    -0.027 C 
BRANCH   9  10
HETATM   10  C   UNL     1      12.079  -2.251 -14.841  1.00  0.00     0.053 C 
BRANCH  10  11
HETATM   11  C   UNL     1      10.973  -1.447 -14.192  1.00  0.00    -0.027 C 
HETATM   12  C   UNL     1      10.498  -1.572 -12.936  1.00  0.00    -0.027 C 
BRANCH  12  13
HETATM   13  C   UNL     1      10.975  -2.531 -11.876  1.00  0.00     0.053 C 
BRANCH  13  14
HETATM   14  C   UNL     1      12.178  -1.958 -11.163  1.00  0.00    -0.027 C 
HETATM   15  C   UNL     1      12.178  -1.494  -9.896  1.00  0.00    -0.027 C 
BRANCH  15  16
HETATM   16  C   UNL     1      10.968  -1.461  -9.000  1.00  0.00     0.053 C 
BRANCH  16  17
HETATM   17  C   UNL     1      10.932  -2.653  -8.076  1.00  0.00    -0.027 C 
HETATM   18  C   UNL     1      11.221  -2.594  -6.764  1.00  0.00    -0.030 C 
BRANCH  18  19
HETATM   19  C   UNL     1      11.633  -1.343  -6.030  1.00  0.00     0.027 C 
BRANCH  19  20
HETATM   20  C   UNL     1      12.147  -1.711  -4.634  1.00  0.00     0.004 C 
BRANCH  20  21
HETATM   21  C   UNL     1      10.988  -2.031  -3.683  1.00  0.00    -0.000 C 
BRANCH  21  22
HETATM   22  C   UNL     1      11.500  -2.255  -2.255  1.00  0.00    -0.005 C 
HETATM   23  C   UNL     1      12.662  -1.320  -1.933  1.00  0.00     0.005 C 
ENDBRANCH  21  22
ENDBRANCH  20  21
ENDBRANCH  19  20
ENDBRANCH  18  19
ENDBRANCH  16  17
ENDBRANCH  15  16
ENDBRANCH  13  14
ENDBRANCH  12  13
ENDBRANCH  10  11
ENDBRANCH   9  10
ENDBRANCH   7   8
ENDBRANCH   6   7
ENDBRANCH   5   6
ENDBRANCH   3   5
ENDBRANCH   1   3
TORSDOF 15
ENDMDL
MODEL 6
REMARK VINA RESULT:      -5.1      5.905      9.661
REMARK  15 active torsions:
REMARK  status: ('A' for Active; 'I' for Inactive)
REMARK    1  A    between atoms: O_1  and  C_22 
REMARK    2  A    between atoms: C_3  and  C_4 
REMARK    3  A    between atoms: C_3  and  C_5 
REMARK    4  A    between atoms: C_4  and  C_6 
REMARK    5  A    between atoms: C_5  and  C_7 
REMARK    6  A    between atoms: C_9  and  C_10 
REMARK    7  A    between atoms: C_9  and  C_13 
REMARK    8  A    between atoms: C_10  and  C_14 
REMARK    9  A    between atoms: C_11  and  C_12 
REMARK   10  A    between atoms: C_12  and  C_16 
REMARK   11  A    between atoms: C_13  and  C_22 
REMARK   12  A    between atoms: C_15  and  C_17 
REMARK   13  A    between atoms: C_15  and  C_20 
REMARK   14  A    between atoms: C_18  and  C_19 
REMARK   15  A    between atoms: C_18  and  C_21 
ROOT
HETATM    1  O   UNL     1      30.209  12.904 -25.744  1.00  0.00    -0.776 OA
HETATM    2  H   UNL     1      30.631  13.329 -24.984  1.00  0.00     0.167 HD
ENDROOT
BRANCH   1   3
HETATM    3  C   UNL     1      28.964  12.388 -25.659  1.00  0.00     0.139 C 
HETATM    4  O   UNL     1      28.729  11.279 -26.116  1.00  0.00    -0.650 OA
BRANCH   3   5
HETATM    5  C   UNL     1      27.867  13.186 -25.011  1.00  0.00     0.110 C 
BRANCH   5   6
HETATM    6  C   UNL     1      27.739  12.891 -23.509  1.00  0.00     0.014 C 
BRANCH   6   7
HETATM    7  C   UNL     1      26.321  12.463 -23.109  1.00  0.00     0.027 C 
BRANCH   7   8
HETATM    8  C   UNL     1      26.393  11.418 -22.024  1.00  0.00    -0.030 C 
HETATM    9  C   UNL     1      25.562  11.336 -20.968  1.00  0.00    -0.027 C 
BRANCH   9  10
HETATM   10  C   UNL     1      24.401  12.258 -20.696  1.00  0.00     0.053 C 
BRANCH  10  11
HETATM   11  C   UNL     1      23.674  11.866 -19.429  1.00  0.00    -0.027 C 
HETATM   12  C   UNL     1      24.159  11.868 -18.170  1.00  0.00    -0.027 C 
BRANCH  12  13
HETATM   13  C   UNL     1      25.540  12.285 -17.731  1.00  0.00     0.053 C 
BRANCH  13  14
HETATM   14  C   UNL     1      26.180  11.182 -16.922  1.00  0.00    -0.027 C 
HETATM   15  C   UNL     1      26.195  11.119 -15.575  1.00  0.00    -0.027 C 
BRANCH  15  16
HETATM   16  C   UNL     1      25.587  12.154 -14.665  1.00  0.00     0.053 C 
BRANCH  16  17
HETATM   17  C   UNL     1      24.451  11.580 -13.856  1.00  0.00    -0.027 C 
HETATM   18  C   UNL     1      24.573  11.160 -12.585  1.00  0.00    -0.030 C 
BRANCH  18  19
HETATM   19  C   UNL     1      25.853  11.189 -11.789  1.00  0.00     0.027 C 
BRANCH  19  20
HETATM   20  C   UNL     1      25.636  11.977 -10.493  1.00  0.00     0.004 C 
BRANCH  20  21
HETATM   21  C   UNL     1      24.147  12.076 -10.147  1.00  0.00    -0.000 C 
BRANCH  21  22
HETATM   22  C   UNL     1      23.936  12.055  -8.628  1.00  0.00    -0.005 C 
HETATM   23  C   UNL     1      24.935  11.125  -7.946  1.00  0.00     0.005 C 
ENDBRANCH  21  22
ENDBRANCH  20  21
ENDBRANCH  19  20
ENDBRANCH  18  19
ENDBRANCH  16  17
ENDBRANCH  15  16
ENDBRANCH  13  14
ENDBRANCH  12  13
ENDBRANCH  10  11
ENDBRANCH   9  10
ENDBRANCH   7   8
ENDBRANCH   6   7
ENDBRANCH   5   6
ENDBRANCH   3   5
ENDBRANCH   1   3
TORSDOF 15
ENDMDL
MODEL 7
REMARK VINA RESULT:      -5.1      4.459      7.749
REMARK  15 active torsions:
REMARK  status: ('A' for Active; 'I' for Inactive)
REMARK    1  A    between atoms: O_1  and  C_22 
REMARK    2  A    between atoms: C_3  and  C_4 
REMARK    3  A    between atoms: C_3  and  C_5 
REMARK    4  A    between atoms: C_4  and  C_6 
REMARK    5  A    between atoms: C_5  and  C_7 
REMARK    6  A    between atoms: C_9  and  C_10 
REMARK    7  A    between atoms: C_9  and  C_13 
REMARK    8  A    between atoms: C_10  and  C_14 
REMARK    9  A    between atoms: C_11  and  C_12 
REMARK   10  A    between atoms: C_12  and  C_16 
REMARK   11  A    between atoms: C_13  and  C_22 
REMARK   12  A    between atoms: C_15  and  C_17 
REMARK   13  A    between atoms: C_15  and  C_20 
REMARK   14  A    between atoms: C_18  and  C_19 
REMARK   15  A    between atoms: C_18  and  C_21 
ROOT
HETATM    1  O   UNL     1      28.655  11.725 -16.309  1.00  0.00    -0.776 OA
HETATM    2  H   UNL     1      29.103  12.492 -15.925  1.00  0.00     0.167 HD
ENDROOT
BRANCH   1   3
HETATM    3  C   UNL     1      27.405  11.380 -15.935  1.00  0.00     0.139 C 
HETATM    4  O   UNL     1      26.643  10.867 -16.741  1.00  0.00    -0.650 OA
BRANCH   3   5
HETATM    5  C   UNL     1      26.949  11.639 -14.525  1.00  0.00     0.110 C 
BRANCH   5   6
HETATM    6  C   UNL     1      25.576  12.325 -14.472  1.00  0.00     0.014 C 
BRANCH   6   7
HETATM    7  C   UNL     1      24.581  11.586 -13.568  1.00  0.00     0.027 C 
BRANCH   7   8
HETATM    8  C   UNL     1      25.328  10.844 -12.490  1.00  0.00    -0.030 C 
HETATM    9  C   UNL     1      25.221  11.079 -11.168  1.00  0.00    -0.027 C 
BRANCH   9  10
HETATM   10  C   UNL     1      24.320  12.107 -10.533  1.00  0.00     0.053 C 
BRANCH  10  11
HETATM   11  C   UNL     1      24.014  11.755  -9.094  1.00  0.00    -0.027 C 
HETATM   12  C   UNL     1      24.732  12.079  -8.000  1.00  0.00    -0.027 C 
BRANCH  12  13
HETATM   13  C   UNL     1      26.002  12.890  -7.955  1.00  0.00     0.053 C 
BRANCH  13  14
HETATM   14  C   UNL     1      27.175  12.037  -8.379  1.00  0.00    -0.027 C 
HETATM   15  C   UNL     1      28.145  12.425  -9.232  1.00  0.00    -0.027 C 
BRANCH  15  16
HETATM   16  C   UNL     1      28.199  13.770  -9.909  1.00  0.00     0.053 C 
BRANCH  16  17
HETATM   17  C   UNL     1      27.630  13.709 -11.304  1.00  0.00    -0.027 C 
HETATM   18  C   UNL     1      28.171  14.338 -12.363  1.00  0.00    -0.030 C 
BRANCH  18  19
HETATM   19  C   UNL     1      29.408  15.199 -12.312  1.00  0.00     0.027 C 
BRANCH  19  20
HETATM   20  C   UNL     1      29.044  16.644 -12.668  1.00  0.00     0.004 C 
BRANCH  20  21
HETATM   21  C   UNL     1      28.926  17.512 -11.411  1.00  0.00    -0.000 C 
BRANCH  21  22
HETATM   22  C   UNL     1      29.988  17.123 -10.376  1.00  0.00    -0.005 C 
HETATM   23  C   UNL     1      29.418  17.157  -8.962  1.00  0.00     0.005 C 
ENDBRANCH  21  22
ENDBRANCH  20  21
ENDBRANCH  19  20
ENDBRANCH  18  19
ENDBRANCH  16  17
ENDBRANCH  15  16
ENDBRANCH  13  14
ENDBRANCH  12  13
ENDBRANCH  10  11
ENDBRANCH   9  10
ENDBRANCH   7   8
ENDBRANCH   6   7
ENDBRANCH   5   6
ENDBRANCH   3   5
ENDBRANCH   1   3
TORSDOF 15
ENDMDL
MODEL 8
REMARK VINA RESULT:      -5.0      4.167      8.259
REMARK  15 active torsions:
REMARK  status: ('A' for Active; 'I' for Inactive)
REMARK    1  A    between atoms: O_1  and  C_22 
REMARK    2  A    between atoms: C_3  and  C_4 
REMARK    3  A    between atoms: C_3  and  C_5 
REMARK    4  A    between atoms: C_4  and  C_6 
REMARK    5  A    between atoms: C_5  and  C_7 
REMARK    6  A    between atoms: C_9  and  C_10 
REMARK    7  A    between atoms: C_9  and  C_13 
REMARK    8  A    between atoms: C_10  and  C_14 
REMARK    9  A    between atoms: C_11  and  C_12 
REMARK   10  A    between atoms: C_12  and  C_16 
REMARK   11  A    between atoms: C_13  and  C_22 
REMARK   12  A    between atoms: C_15  and  C_17 
REMARK   13  A    between atoms: C_15  and  C_20 
REMARK   14  A    between atoms: C_18  and  C_19 
REMARK   15  A    between atoms: C_18  and  C_21 
ROOT
HETATM    1  O   UNL     1      29.950  16.674  -7.680  1.00  0.00    -0.776 OA
HETATM    2  H   UNL     1      30.141  16.485  -8.609  1.00  0.00     0.167 HD
ENDROOT
BRANCH   1   3
HETATM    3  C   UNL     1      28.771  16.330  -7.120  1.00  0.00     0.139 C 
HETATM    4  O   UNL     1      27.821  17.098  -7.170  1.00  0.00    -0.650 OA
BRANCH   3   5
HETATM    5  C   UNL     1      28.633  15.003  -6.424  1.00  0.00     0.110 C 
BRANCH   5   6
HETATM    6  C   UNL     1      28.084  13.911  -7.353  1.00  0.00     0.014 C 
BRANCH   6   7
HETATM    7  C   UNL     1      27.972  12.547  -6.661  1.00  0.00     0.027 C 
BRANCH   7   8
HETATM    8  C   UNL     1      26.844  12.576  -5.660  1.00  0.00    -0.030 C 
HETATM    9  C   UNL     1      25.612  12.073  -5.864  1.00  0.00    -0.027 C 
BRANCH   9  10
HETATM   10  C   UNL     1      25.150  11.371  -7.116  1.00  0.00     0.053 C 
BRANCH  10  11
HETATM   11  C   UNL     1      24.125  12.197  -7.860  1.00  0.00    -0.027 C 
HETATM   12  C   UNL     1      23.905  12.228  -9.191  1.00  0.00    -0.027 C 
BRANCH  12  13
HETATM   13  C   UNL     1      24.622  11.427 -10.247  1.00  0.00     0.053 C 
BRANCH  13  14
HETATM   14  C   UNL     1      25.662  12.285 -10.930  1.00  0.00    -0.027 C 
HETATM   15  C   UNL     1      25.975  12.225 -12.241  1.00  0.00    -0.027 C 
BRANCH  15  16
HETATM   16  C   UNL     1      25.344  11.276 -13.226  1.00  0.00     0.053 C 
BRANCH  16  17
HETATM   17  C   UNL     1      24.027  11.805 -13.738  1.00  0.00    -0.027 C 
HETATM   18  C   UNL     1      23.826  12.223 -15.000  1.00  0.00    -0.030 C 
BRANCH  18  19
HETATM   19  C   UNL     1      24.879  12.237 -16.079  1.00  0.00     0.027 C 
BRANCH  19  20
HETATM   20  C   UNL     1      24.207  12.349 -17.452  1.00  0.00     0.004 C 
BRANCH  20  21
HETATM   21  C   UNL     1      24.608  11.184 -18.362  1.00  0.00    -0.000 C 
BRANCH  21  22
HETATM   22  C   UNL     1      25.924  11.486 -19.089  1.00  0.00    -0.005 C 
HETATM   23  C   UNL     1      25.698  11.660 -20.588  1.00  0.00     0.005 C 
ENDBRANCH  21  22
ENDBRANCH  20  21
ENDBRANCH  19  20
ENDBRANCH  18  19
ENDBRANCH  16  17
ENDBRANCH  15  16
ENDBRANCH  13  14
ENDBRANCH  12  13
ENDBRANCH  10  11
ENDBRANCH   9  10
ENDBRANCH   7   8
ENDBRANCH   6   7
ENDBRANCH   5   6
ENDBRANCH   3   5
ENDBRANCH   1   3
TORSDOF 15
ENDMDL
MODEL 9
REMARK VINA RESULT:      -5.0      3.842      8.108
REMARK  15 active torsions:
REMARK  status: ('A' for Active; 'I' for Inactive)
REMARK    1  A    between atoms: O_1  and  C_22 
REMARK    2  A    between atoms: C_3  and  C_4 
REMARK    3  A    between atoms: C_3  and  C_5 
REMARK    4  A    between atoms: C_4  and  C_6 
REMARK    5  A    between atoms: C_5  and  C_7 
REMARK    6  A    between atoms: C_9  and  C_10 
REMARK    7  A    between atoms: C_9  and  C_13 
REMARK    8  A    between atoms: C_10  and  C_14 
REMARK    9  A    between atoms: C_11  and  C_12 
REMARK   10  A    between atoms: C_12  and  C_16 
REMARK   11  A    between atoms: C_13  and  C_22 
REMARK   12  A    between atoms: C_15  and  C_17 
REMARK   13  A    between atoms: C_15  and  C_20 
REMARK   14  A    between atoms: C_18  and  C_19 
REMARK   15  A    between atoms: C_18  and  C_21 
ROOT
HETATM    1  O   UNL     1      29.089  17.970 -19.339  1.00  0.00    -0.776 OA
HETATM    2  H   UNL     1      28.590  17.814 -18.525  1.00  0.00     0.167 HD
ENDROOT
BRANCH   1   3
HETATM    3  C   UNL     1      29.703  16.961 -19.992  1.00  0.00     0.139 C 
HETATM    4  O   UNL     1      30.767  16.523 -19.580  1.00  0.00    -0.650 OA
BRANCH   3   5
HETATM    5  C   UNL     1      29.080  16.384 -21.233  1.00  0.00     0.110 C 
BRANCH   5   6
HETATM    6  C   UNL     1      29.220  14.857 -21.302  1.00  0.00     0.014 C 
BRANCH   6   7
HETATM    7  C   UNL     1      27.894  14.129 -21.044  1.00  0.00     0.027 C 
BRANCH   7   8
HETATM    8  C   UNL     1      27.965  13.396 -19.728  1.00  0.00    -0.030 C 
HETATM    9  C   UNL     1      27.604  12.114 -19.533  1.00  0.00    -0.027 C 
BRANCH   9  10
HETATM   10  C   UNL     1      27.088  11.179 -20.597  1.00  0.00     0.053 C 
BRANCH  10  11
HETATM   11  C   UNL     1      25.862  11.747 -21.278  1.00  0.00    -0.027 C 
HETATM   12  C   UNL     1      24.598  11.767 -20.808  1.00  0.00    -0.027 C 
BRANCH  12  13
HETATM   13  C   UNL     1      24.116  11.244 -19.479  1.00  0.00     0.053 C 
BRANCH  13  14
HETATM   14  C   UNL     1      24.084  12.362 -18.464  1.00  0.00    -0.027 C 
HETATM   15  C   UNL     1      24.582  12.285 -17.213  1.00  0.00    -0.027 C 
BRANCH  15  16
HETATM   16  C   UNL     1      25.233  11.059 -16.627  1.00  0.00     0.053 C 
BRANCH  16  17
HETATM   17  C   UNL     1      26.421  11.420 -15.771  1.00  0.00    -0.027 C 
HETATM   18  C   UNL     1      26.358  11.607 -14.441  1.00  0.00    -0.030 C 
BRANCH  18  19
HETATM   19  C   UNL     1      25.101  11.497 -13.616  1.00  0.00     0.027 C 
BRANCH  19  20
HETATM   20  C   UNL     1      25.289  12.241 -12.290  1.00  0.00     0.004 C 
BRANCH  20  21
HETATM   21  C   UNL     1      25.144  11.291 -11.095  1.00  0.00    -0.000 C 
BRANCH  21  22
HETATM   22  C   UNL     1      25.047  12.076  -9.782  1.00  0.00    -0.005 C 
HETATM   23  C   UNL     1      23.869  11.597  -8.939  1.00  0.00     0.005 C 
ENDBRANCH  21  22
ENDBRANCH  20  21
ENDBRANCH  19  20
ENDBRANCH  18  19
ENDBRANCH  16  17
ENDBRANCH  15  16
ENDBRANCH  13  14
ENDBRANCH  12  13
ENDBRANCH  10  11
ENDBRANCH   9  10
ENDBRANCH   7   8
ENDBRANCH   6   7
ENDBRANCH   5   6
ENDBRANCH   3   5
ENDBRANCH   1   3
TORSDOF 15
ENDMDL
MODEL 10
REMARK VINA RESULT:      -5.0      3.661      8.955
REMARK  15 active torsions:
REMARK  status: ('A' for Active; 'I' for Inactive)
REMARK    1  A    between atoms: O_1  and  C_22 
REMARK    2  A    between atoms: C_3  and  C_4 
REMARK    3  A    between atoms: C_3  and  C_5 
REMARK    4  A    between atoms: C_4  and  C_6 
REMARK    5  A    between atoms: C_5  and  C_7 
REMARK    6  A    between atoms: C_9  and  C_10 
REMARK    7  A    between atoms: C_9  and  C_13 
REMARK    8  A    between atoms: C_10  and  C_14 
REMARK    9  A    between atoms: C_11  and  C_12 
REMARK   10  A    between atoms: C_12  and  C_16 
REMARK   11  A    between atoms: C_13  and  C_22 
REMARK   12  A    between atoms: C_15  and  C_17 
REMARK   13  A    between atoms: C_15  and  C_20 
REMARK   14  A    between atoms: C_18  and  C_19 
REMARK   15  A    between atoms: C_18  and  C_21 
ROOT
HETATM    1  O   UNL     1      29.981  16.633 -13.229  1.00  0.00    -0.776 OA
HETATM    2  H   UNL     1      29.486  17.296 -13.730  1.00  0.00     0.167 HD
ENDROOT
BRANCH   1   3
HETATM    3  C   UNL     1      29.621  15.332 -13.239  1.00  0.00     0.139 C 
HETATM    4  O   UNL     1      29.970  14.592 -12.331  1.00  0.00    -0.650 OA
BRANCH   3   5
HETATM    5  C   UNL     1      28.798  14.793 -14.377  1.00  0.00     0.110 C 
BRANCH   5   6
HETATM    6  C   UNL     1      27.830  13.689 -13.926  1.00  0.00     0.014 C 
BRANCH   6   7
HETATM    7  C   UNL     1      27.835  12.477 -14.867  1.00  0.00     0.027 C 
BRANCH   7   8
HETATM    8  C   UNL     1      27.127  12.828 -16.151  1.00  0.00    -0.030 C 
HETATM    9  C   UNL     1      25.934  12.338 -16.538  1.00  0.00    -0.027 C 
BRANCH   9  10
HETATM   10  C   UNL     1      25.086  11.374 -15.747  1.00  0.00     0.053 C 
BRANCH  10  11
HETATM   11  C   UNL     1      24.225  12.101 -14.738  1.00  0.00    -0.027 C 
HETATM   12  C   UNL     1      24.210  11.933 -13.400  1.00  0.00    -0.027 C 
BRANCH  12  13
HETATM   13  C   UNL     1      25.067  10.990 -12.594  1.00  0.00     0.053 C 
BRANCH  13  14
HETATM   14  C   UNL     1      25.941  11.772 -11.642  1.00  0.00    -0.027 C 
HETATM   15  C   UNL     1      25.623  12.068 -10.366  1.00  0.00    -0.027 C 
BRANCH  15  16
HETATM   16  C   UNL     1      24.332  11.676  -9.694  1.00  0.00     0.053 C 
BRANCH  16  17
HETATM   17  C   UNL     1      24.136  12.420  -8.397  1.00  0.00    -0.027 C 
HETATM   18  C   UNL     1      24.650  12.024  -7.220  1.00  0.00    -0.030 C 
BRANCH  18  19
HETATM   19  C   UNL     1      25.483  10.783  -7.019  1.00  0.00     0.027 C 
BRANCH  19  20
HETATM   20  C   UNL     1      26.733  11.129  -6.203  1.00  0.00     0.004 C 
BRANCH  20  21
HETATM   21  C   UNL     1      26.552  12.447  -5.443  1.00  0.00    -0.000 C 
BRANCH  21  22
HETATM   22  C   UNL     1      27.721  13.401  -5.718  1.00  0.00    -0.005 C 
HETATM   23  C   UNL     1      28.571  12.908  -6.885  1.00  0.00     0.005 C 
ENDBRANCH  21  22
ENDBRANCH  20  21
ENDBRANCH  19  20
ENDBRANCH  18  19
ENDBRANCH  16  17
ENDBRANCH  15  16
ENDBRANCH  13  14
ENDBRANCH  12  13
ENDBRANCH  10  11
ENDBRANCH   9  10
ENDBRANCH   7   8
ENDBRANCH   6   7
ENDBRANCH   5   6
ENDBRANCH   3   5
ENDBRANCH   1   3
TORSDOF 15
ENDMDL
MODEL 11
REMARK VINA RESULT:      -5.0      4.480      8.066
REMARK  15 active torsions:
REMARK  status: ('A' for Active; 'I' for Inactive)
REMARK    1  A    between atoms: O_1  and  C_22 
REMARK    2  A    between atoms: C_3  and  C_4 
REMARK    3  A    between atoms: C_3  and  C_5 
REMARK    4  A    between atoms: C_4  and  C_6 
REMARK    5  A    between atoms: C_5  and  C_7 
REMARK    6  A    between atoms: C_9  and  C_10 
REMARK    7  A    between atoms: C_9  and  C_13 
REMARK    8  A    between atoms: C_10  and  C_14 
REMARK    9  A    between atoms: C_11  and  C_12 
REMARK   10  A    between atoms: C_12  and  C_16 
REMARK   11  A    between atoms: C_13  and  C_22 
REMARK   12  A    between atoms: C_15  and  C_17 
REMARK   13  A    between atoms: C_15  and  C_20 
REMARK   14  A    between atoms: C_18  and  C_19 
REMARK   15  A    between atoms: C_18  and  C_21 
ROOT
HETATM    1  O   UNL     1      30.284   8.847 -13.151  1.00  0.00    -0.776 OA
HETATM    2  H   UNL     1      29.442   8.537 -12.789  1.00  0.00     0.167 HD
ENDROOT
BRANCH   1   3
HETATM    3  C   UNL     1      30.648   8.568 -14.421  1.00  0.00     0.139 C 
HETATM    4  O   UNL     1      31.452   7.674 -14.644  1.00  0.00    -0.650 OA
BRANCH   3   5
HETATM    5  C   UNL     1      30.073   9.367 -15.557  1.00  0.00     0.110 C 
BRANCH   5   6
HETATM    6  C   UNL     1      29.821  10.832 -15.172  1.00  0.00     0.014 C 
BRANCH   6   7
HETATM    7  C   UNL     1      28.335  11.135 -14.940  1.00  0.00     0.027 C 
BRANCH   7   8
HETATM    8  C   UNL     1      27.531  10.673 -16.130  1.00  0.00    -0.030 C 
HETATM    9  C   UNL     1      26.343  11.181 -16.508  1.00  0.00    -0.027 C 
BRANCH   9  10
HETATM   10  C   UNL     1      25.619  12.315 -15.826  1.00  0.00     0.053 C 
BRANCH  10  11
HETATM   11  C   UNL     1      24.255  11.880 -15.339  1.00  0.00    -0.027 C 
HETATM   12  C   UNL     1      23.772  11.949 -14.081  1.00  0.00    -0.027 C 
BRANCH  12  13
HETATM   13  C   UNL     1      24.478  12.498 -12.868  1.00  0.00     0.053 C 
BRANCH  13  14
HETATM   14  C   UNL     1      25.135  11.375 -12.100  1.00  0.00    -0.027 C 
HETATM   15  C   UNL     1      25.008  11.168 -10.773  1.00  0.00    -0.027 C 
BRANCH  15  16
HETATM   16  C   UNL     1      24.201  12.039  -9.846  1.00  0.00     0.053 C 
BRANCH  16  17
HETATM   17  C   UNL     1      24.307  11.571  -8.416  1.00  0.00    -0.027 C 
HETATM   18  C   UNL     1      25.258  11.986  -7.560  1.00  0.00    -0.030 C 
BRANCH  18  19
HETATM   19  C   UNL     1      26.357  12.961  -7.902  1.00  0.00     0.027 C 
BRANCH  19  20
HETATM   20  C   UNL     1      27.712  12.249  -7.844  1.00  0.00     0.004 C 
BRANCH  20  21
HETATM   21  C   UNL     1      28.188  11.847  -9.243  1.00  0.00    -0.000 C 
BRANCH  21  22
HETATM   22  C   UNL     1      28.143  13.043 -10.201  1.00  0.00    -0.005 C 
HETATM   23  C   UNL     1      29.547  13.546 -10.522  1.00  0.00     0.005 C 
ENDBRANCH  21  22
ENDBRANCH  20  21
ENDBRANCH  19  20
ENDBRANCH  18  19
ENDBRANCH  16  17
ENDBRANCH  15  16
ENDBRANCH  13  14
ENDBRANCH  12  13
ENDBRANCH  10  11
ENDBRANCH   9  10
ENDBRANCH   7   8
ENDBRANCH   6   7
ENDBRANCH   5   6
ENDBRANCH   3   5
ENDBRANCH   1   3
TORSDOF 15
ENDMDL
MODEL 12
REMARK VINA RESULT:      -5.0      4.860      7.954
REMARK  15 active torsions:
REMARK  status: ('A' for Active; 'I' for Inactive)
REMARK    1  A    between atoms: O_1  and  C_22 
REMARK    2  A    between atoms: C_3  and  C_4 
REMARK    3  A    between atoms: C_3  and  C_5 
REMARK    4  A    between atoms: C_4  and  C_6 
REMARK    5  A    between atoms: C_5  and  C_7 
REMARK    6  A    between atoms: C_9  and  C_10 
REMARK    7  A    between atoms: C_9  and  C_13 
REMARK    8  A    between atoms: C_10  and  C_14 
REMARK    9  A    between atoms: C_11  and  C_12 
REMARK   10  A    between atoms: C_12  and  C_16 
REMARK   11  A    between atoms: C_13  and  C_22 
REMARK   12  A    between atoms: C_15  and  C_17 
REMARK   13  A    between atoms: C_15  and  C_20 
REMARK   14  A    between atoms: C_18  and  C_19 
REMARK   15  A    between atoms: C_18  and  C_21 
ROOT
HETATM    1  O   UNL     1      32.253   7.698 -16.514  1.00  0.00    -0.776 OA
HETATM    2  H   UNL     1      31.810   7.871 -15.672  1.00  0.00     0.167 HD
ENDROOT
BRANCH   1   3
HETATM    3  C   UNL     1      31.950   6.612 -17.257  1.00  0.00     0.139 C 
HETATM    4  O   UNL     1      32.525   5.552 -17.056  1.00  0.00    -0.650 OA
BRANCH   3   5
HETATM    5  C   UNL     1      30.913   6.715 -18.341  1.00  0.00     0.110 C 
BRANCH   5   6
HETATM    6  C   UNL     1      31.473   6.349 -19.723  1.00  0.00     0.014 C 
BRANCH   6   7
HETATM    7  C   UNL     1      31.941   7.577 -20.515  1.00  0.00     0.027 C 
BRANCH   7   8
HETATM    8  C   UNL     1      31.094   7.735 -21.753  1.00  0.00    -0.030 C 
HETATM    9  C   UNL     1      30.448   8.860 -22.113  1.00  0.00    -0.027 C 
BRANCH   9  10
HETATM   10  C   UNL     1      30.476  10.165 -21.356  1.00  0.00     0.053 C 
BRANCH  10  11
HETATM   11  C   UNL     1      29.423  10.192 -20.271  1.00  0.00    -0.027 C 
HETATM   12  C   UNL     1      28.204  10.767 -20.324  1.00  0.00    -0.027 C 
BRANCH  12  13
HETATM   13  C   UNL     1      27.598  11.503 -21.492  1.00  0.00     0.053 C 
BRANCH  13  14
HETATM   14  C   UNL     1      26.273  10.880 -21.864  1.00  0.00    -0.027 C 
HETATM   15  C   UNL     1      25.081  11.224 -21.334  1.00  0.00    -0.027 C 
BRANCH  15  16
HETATM   16  C   UNL     1      24.890  12.275 -20.272  1.00  0.00     0.053 C 
BRANCH  16  17
HETATM   17  C   UNL     1      23.861  11.851 -19.254  1.00  0.00    -0.027 C 
HETATM   18  C   UNL     1      24.166  11.359 -18.040  1.00  0.00    -0.030 C 
BRANCH  18  19
HETATM   19  C   UNL     1      25.567  11.148 -17.524  1.00  0.00     0.027 C 
BRANCH  19  20
HETATM   20  C   UNL     1      25.750  11.907 -16.206  1.00  0.00     0.004 C 
BRANCH  20  21
HETATM   21  C   UNL     1      24.398  12.251 -15.572  1.00  0.00    -0.000 C 
BRANCH  21  22
HETATM   22  C   UNL     1      24.117  11.352 -14.362  1.00  0.00    -0.005 C 
HETATM   23  C   UNL     1      24.622  11.990 -13.072  1.00  0.00     0.005 C 
ENDBRANCH  21  22
ENDBRANCH  20  21
ENDBRANCH  19  20
ENDBRANCH  18  19
ENDBRANCH  16  17
ENDBRANCH  15  16
ENDBRANCH  13  14
ENDBRANCH  12  13
ENDBRANCH  10  11
ENDBRANCH   9  10
ENDBRANCH   7   8
ENDBRANCH   6   7
ENDBRANCH   5   6
ENDBRANCH   3   5
ENDBRANCH   1   3
TORSDOF 15
ENDMDL
MODEL 13
REMARK VINA RESULT:      -5.0      3.450      7.490
REMARK  15 active torsions:
REMARK  status: ('A' for Active; 'I' for Inactive)
REMARK    1  A    between atoms: O_1  and  C_22 
REMARK    2  A    between atoms: C_3  and  C_4 
REMARK    3  A    between atoms: C_3  and  C_5 
REMARK    4  A    between atoms: C_4  and  C_6 
REMARK    5  A    between atoms: C_5  and  C_7 
REMARK    6  A    between atoms: C_9  and  C_10 
REMARK    7  A    between atoms: C_9  and  C_13 
REMARK    8  A    between atoms: C_10  and  C_14 
REMARK    9  A    between atoms: C_11  and  C_12 
REMARK   10  A    between atoms: C_12  and  C_16 
REMARK   11  A    between atoms: C_13  and  C_22 
REMARK   12  A    between atoms: C_15  and  C_17 
REMARK   13  A    between atoms: C_15  and  C_20 
REMARK   14  A    between atoms: C_18  and  C_19 
REMARK   15  A    between atoms: C_18  and  C_21 
ROOT
HETATM    1  O   UNL     1      27.872  10.510 -15.390  1.00  0.00    -0.776 OA
HETATM    2  H   UNL     1      28.390  10.934 -14.691  1.00  0.00     0.167 HD
ENDROOT
BRANCH   1   3
HETATM    3  C   UNL     1      26.757  11.087 -15.887  1.00  0.00     0.139 C 
HETATM    4  O   UNL     1      26.049  10.474 -16.672  1.00  0.00    -0.650 OA
BRANCH   3   5
HETATM    5  C   UNL     1      26.396  12.489 -15.480  1.00  0.00     0.110 C 
BRANCH   5   6
HETATM    6  C   UNL     1      26.076  12.599 -13.983  1.00  0.00     0.014 C 
BRANCH   6   7
HETATM    7  C   UNL     1      25.080  11.532 -13.510  1.00  0.00     0.027 C 
BRANCH   7   8
HETATM    8  C   UNL     1      25.638  10.813 -12.308  1.00  0.00    -0.030 C 
HETATM    9  C   UNL     1      25.377  11.127 -11.025  1.00  0.00    -0.027 C 
BRANCH   9  10
HETATM   10  C   UNL     1      24.463  12.235 -10.565  1.00  0.00     0.053 C 
BRANCH  10  11
HETATM   11  C   UNL     1      23.740  11.855  -9.292  1.00  0.00    -0.027 C 
HETATM   12  C   UNL     1      24.167  12.025  -8.023  1.00  0.00    -0.027 C 
BRANCH  12  13
HETATM   13  C   UNL     1      25.463  12.653  -7.579  1.00  0.00     0.053 C 
BRANCH  13  14
HETATM   14  C   UNL     1      26.560  11.615  -7.558  1.00  0.00    -0.027 C 
HETATM   15  C   UNL     1      27.755  11.739  -8.171  1.00  0.00    -0.027 C 
BRANCH  15  16
HETATM   16  C   UNL     1      28.174  12.932  -8.990  1.00  0.00     0.053 C 
BRANCH  16  17
HETATM   17  C   UNL     1      28.803  12.514 -10.296  1.00  0.00    -0.027 C 
HETATM   18  C   UNL     1      28.709  13.222 -11.434  1.00  0.00    -0.030 C 
BRANCH  18  19
HETATM   19  C   UNL     1      27.959  14.523 -11.579  1.00  0.00     0.027 C 
BRANCH  19  20
HETATM   20  C   UNL     1      28.727  15.457 -12.520  1.00  0.00     0.004 C 
BRANCH  20  21
HETATM   21  C   UNL     1      28.871  14.842 -13.916  1.00  0.00    -0.000 C 
BRANCH  21  22
HETATM   22  C   UNL     1      29.797  15.693 -14.794  1.00  0.00    -0.005 C 
HETATM   23  C   UNL     1      29.077  16.172 -16.051  1.00  0.00     0.005 C 
ENDBRANCH  21  22
ENDBRANCH  20  21
ENDBRANCH  19  20
ENDBRANCH  18  19
ENDBRANCH  16  17
ENDBRANCH  15  16
ENDBRANCH  13  14
ENDBRANCH  12  13
ENDBRANCH  10  11
ENDBRANCH   9  10
ENDBRANCH   7   8
ENDBRANCH   6   7
ENDBRANCH   5   6
ENDBRANCH   3   5
ENDBRANCH   1   3
TORSDOF 15
ENDMDL
MODEL 14
REMARK VINA RESULT:      -5.0      2.898      4.188
REMARK  15 active torsions:
REMARK  status: ('A' for Active; 'I' for Inactive)
REMARK    1  A    between atoms: O_1  and  C_22 
REMARK    2  A    between atoms: C_3  and  C_4 
REMARK    3  A    between atoms: C_3  and  C_5 
REMARK    4  A    between atoms: C_4  and  C_6 
REMARK    5  A    between atoms: C_5  and  C_7 
REMARK    6  A    between atoms: C_9  and  C_10 
REMARK    7  A    between atoms: C_9  and  C_13 
REMARK    8  A    between atoms: C_10  and  C_14 
REMARK    9  A    between atoms: C_11  and  C_12 
REMARK   10  A    between atoms: C_12  and  C_16 
REMARK   11  A    between atoms: C_13  and  C_22 
REMARK   12  A    between atoms: C_15  and  C_17 
REMARK   13  A    between atoms: C_15  and  C_20 
REMARK   14  A    between atoms: C_18  and  C_19 
REMARK   15  A    between atoms: C_18  and  C_21 
ROOT
HETATM    1  O   UNL     1      26.660  12.233 -10.070  1.00  0.00    -0.776 OA
HETATM    2  H   UNL     1      26.825  12.957  -9.449  1.00  0.00     0.167 HD
ENDROOT
BRANCH   1   3
HETATM    3  C   UNL     1      25.454  12.068 -10.653  1.00  0.00     0.139 C 
HETATM    4  O   UNL     1      24.494  11.713  -9.985  1.00  0.00    -0.650 OA
BRANCH   3   5
HETATM    5  C   UNL     1      25.299  12.310 -12.129  1.00  0.00     0.110 C 
BRANCH   5   6
HETATM    6  C   UNL     1      24.730  11.088 -12.865  1.00  0.00     0.014 C 
BRANCH   6   7
HETATM    7  C   UNL     1      24.469  11.361 -14.352  1.00  0.00     0.027 C 
BRANCH   7   8
HETATM    8  C   UNL     1      25.603  12.172 -14.926  1.00  0.00    -0.030 C 
HETATM    9  C   UNL     1      26.032  12.114 -16.200  1.00  0.00    -0.027 C 
BRANCH   9  10
HETATM   10  C   UNL     1      25.441  11.247 -17.283  1.00  0.00     0.053 C 
BRANCH  10  11
HETATM   11  C   UNL     1      24.246  11.914 -17.928  1.00  0.00    -0.027 C 
HETATM   12  C   UNL     1      24.065  12.186 -19.237  1.00  0.00    -0.027 C 
BRANCH  12  13
HETATM   13  C   UNL     1      25.009  11.867 -20.368  1.00  0.00     0.053 C 
BRANCH  13  14
HETATM   14  C   UNL     1      24.341  12.149 -21.693  1.00  0.00    -0.027 C 
HETATM   15  C   UNL     1      24.956  12.112 -22.893  1.00  0.00    -0.027 C 
BRANCH  15  16
HETATM   16  C   UNL     1      26.415  11.799 -23.095  1.00  0.00     0.053 C 
BRANCH  16  17
HETATM   17  C   UNL     1      27.229  13.054 -23.288  1.00  0.00    -0.027 C 
HETATM   18  C   UNL     1      28.572  13.077 -23.336  1.00  0.00    -0.030 C 
BRANCH  18  19
HETATM   19  C   UNL     1      29.459  11.866 -23.194  1.00  0.00     0.027 C 
BRANCH  19  20
HETATM   20  C   UNL     1      29.996  11.787 -21.761  1.00  0.00     0.004 C 
BRANCH  20  21
HETATM   21  C   UNL     1      29.590  10.471 -21.088  1.00  0.00    -0.000 C 
BRANCH  21  22
HETATM   22  C   UNL     1      28.427  10.692 -20.113  1.00  0.00    -0.005 C 
HETATM   23  C   UNL     1      28.376  12.140 -19.636  1.00  0.00     0.005 C 
ENDBRANCH  21  22
ENDBRANCH  20  21
ENDBRANCH  19  20
ENDBRANCH  18  19
ENDBRANCH  16  17
ENDBRANCH  15  16
ENDBRANCH  13  14
ENDBRANCH  12  13
ENDBRANCH  10  11
ENDBRANCH   9  10
ENDBRANCH   7   8
ENDBRANCH   6   7
ENDBRANCH   5   6
ENDBRANCH   3   5
ENDBRANCH   1   3
TORSDOF 15
ENDMDL
MODEL 15
REMARK VINA RESULT:      -4.9      9.222     11.140
REMARK  15 active torsions:
REMARK  status: ('A' for Active; 'I' for Inactive)
REMARK    1  A    between atoms: O_1  and  C_22 
REMARK    2  A    between atoms: C_3  and  C_4 
REMARK    3  A    between atoms: C_3  and  C_5 
REMARK    4  A    between atoms: C_4  and  C_6 
REMARK    5  A    between atoms: C_5  and  C_7 
REMARK    6  A    between atoms: C_9  and  C_10 
REMARK    7  A    between atoms: C_9  and  C_13 
REMARK    8  A    between atoms: C_10  and  C_14 
REMARK    9  A    between atoms: C_11  and  C_12 
REMARK   10  A    between atoms: C_12  and  C_16 
REMARK   11  A    between atoms: C_13  and  C_22 
REMARK   12  A    between atoms: C_15  and  C_17 
REMARK   13  A    between atoms: C_15  and  C_20 
REMARK   14  A    between atoms: C_18  and  C_19 
REMARK   15  A    between atoms: C_18  and  C_21 
ROOT
HETATM    1  O   UNL     1      33.269   5.067 -21.116  1.00  0.00    -0.776 OA
HETATM    2  H   UNL     1      33.700   4.366 -20.607  1.00  0.00     0.167 HD
ENDROOT
BRANCH   1   3
HETATM    3  C   UNL     1      32.702   6.130 -20.508  1.00  0.00     0.139 C 
HETATM    4  O   UNL     1      32.622   7.200 -21.094  1.00  0.00    -0.650 OA
BRANCH   3   5
HETATM    5  C   UNL     1      32.181   5.998 -19.103  1.00  0.00     0.110 C 
BRANCH   5   6
HETATM    6  C   UNL     1      33.297   6.098 -18.054  1.00  0.00     0.014 C 
BRANCH   6   7
HETATM    7  C   UNL     1      32.864   5.575 -16.678  1.00  0.00     0.027 C 
BRANCH   7   8
HETATM    8  C   UNL     1      31.406   5.886 -16.452  1.00  0.00    -0.030 C 
HETATM    9  C   UNL     1      30.838   6.114 -15.253  1.00  0.00    -0.027 C 
BRANCH   9  10
HETATM   10  C   UNL     1      31.562   6.124 -13.930  1.00  0.00     0.053 C 
BRANCH  10  11
HETATM   11  C   UNL     1      30.591   6.230 -12.775  1.00  0.00    -0.027 C 
HETATM   12  C   UNL     1      30.862   6.601 -11.507  1.00  0.00    -0.027 C 
BRANCH  12  13
HETATM   13  C   UNL     1      32.199   7.017 -10.949  1.00  0.00     0.053 C 
BRANCH  13  14
HETATM   14  C   UNL     1      32.556   8.400 -11.441  1.00  0.00    -0.027 C 
HETATM   15  C   UNL     1      33.745   8.748 -11.975  1.00  0.00    -0.027 C 
BRANCH  15  16
HETATM   16  C   UNL     1      34.911   7.810 -12.148  1.00  0.00     0.053 C 
BRANCH  16  17
HETATM   17  C   UNL     1      34.790   7.008 -13.420  1.00  0.00    -0.027 C 
HETATM   18  C   UNL     1      35.480   7.275 -14.543  1.00  0.00    -0.030 C 
BRANCH  18  19
HETATM   19  C   UNL     1      36.458   8.411 -14.702  1.00  0.00     0.027 C 
BRANCH  19  20
HETATM   20  C   UNL     1      36.205   9.125 -16.034  1.00  0.00     0.004 C 
BRANCH  20  21
HETATM   21  C   UNL     1      34.813   8.797 -16.583  1.00  0.00    -0.000 C 
BRANCH  21  22
HETATM   22  C   UNL     1      33.832   9.943 -16.306  1.00  0.00    -0.005 C 
HETATM   23  C   UNL     1      32.639   9.462 -15.487  1.00  0.00     0.005 C 
ENDBRANCH  21  22
ENDBRANCH  20  21
ENDBRANCH  19  20
ENDBRANCH  18  19
ENDBRANCH  16  17
ENDBRANCH  15  16
ENDBRANCH  13  14
ENDBRANCH  12  13
ENDBRANCH  10  11
ENDBRANCH   9  10
ENDBRANCH   7   8
ENDBRANCH   6   7
ENDBRANCH   5   6
ENDBRANCH   3   5
ENDBRANCH   1   3
TORSDOF 15
ENDMDL
MODEL 16
REMARK VINA RESULT:      -4.8      8.625     10.780
REMARK  15 active torsions:
REMARK  status: ('A' for Active; 'I' for Inactive)
REMARK    1  A    between atoms: O_1  and  C_22 
REMARK    2  A    between atoms: C_3  and  C_4 
REMARK    3  A    between atoms: C_3  and  C_5 
REMARK    4  A    between atoms: C_4  and  C_6 
REMARK    5  A    between atoms: C_5  and  C_7 
REMARK    6  A    between atoms: C_9  and  C_10 
REMARK    7  A    between atoms: C_9  and  C_13 
REMARK    8  A    between atoms: C_10  and  C_14 
REMARK    9  A    between atoms: C_11  and  C_12 
REMARK   10  A    between atoms: C_12  and  C_16 
REMARK   11  A    between atoms: C_13  and  C_22 
REMARK   12  A    between atoms: C_15  and  C_17 
REMARK   13  A    between atoms: C_15  and  C_20 
REMARK   14  A    between atoms: C_18  and  C_19 
REMARK   15  A    between atoms: C_18  and  C_21 
ROOT
HETATM    1  O   UNL     1      36.201  10.047 -18.153  1.00  0.00    -0.776 OA
HETATM    2  H   UNL     1      36.976  10.466 -17.753  1.00  0.00     0.167 HD
ENDROOT
BRANCH   1   3
HETATM    3  C   UNL     1      36.310   8.910 -18.873  1.00  0.00     0.139 C 
HETATM    4  O   UNL     1      37.147   8.824 -19.759  1.00  0.00    -0.650 OA
BRANCH   3   5
HETATM    5  C   UNL     1      35.390   7.755 -18.588  1.00  0.00     0.110 C 
BRANCH   5   6
HETATM    6  C   UNL     1      34.987   7.002 -19.864  1.00  0.00     0.014 C 
BRANCH   6   7
HETATM    7  C   UNL     1      33.642   6.278 -19.724  1.00  0.00     0.027 C 
BRANCH   7   8
HETATM    8  C   UNL     1      33.309   5.569 -21.013  1.00  0.00    -0.030 C 
HETATM    9  C   UNL     1      32.110   5.594 -21.625  1.00  0.00    -0.027 C 
BRANCH   9  10
HETATM   10  C   UNL     1      30.898   6.352 -21.145  1.00  0.00     0.053 C 
BRANCH  10  11
HETATM   11  C   UNL     1      30.788   7.698 -21.825  1.00  0.00    -0.027 C 
HETATM   12  C   UNL     1      30.508   8.887 -21.252  1.00  0.00    -0.027 C 
BRANCH  12  13
HETATM   13  C   UNL     1      30.260   9.153 -19.790  1.00  0.00     0.053 C 
BRANCH  13  14
HETATM   14  C   UNL     1      31.575   9.304 -19.062  1.00  0.00    -0.027 C 
HETATM   15  C   UNL     1      31.835   8.829 -17.826  1.00  0.00    -0.027 C 
BRANCH  15  16
HETATM   16  C   UNL     1      30.842   8.085 -16.972  1.00  0.00     0.053 C 
BRANCH  16  17
HETATM   17  C   UNL     1      30.787   6.622 -17.335  1.00  0.00    -0.027 C 
HETATM   18  C   UNL     1      31.470   5.662 -16.686  1.00  0.00    -0.030 C 
BRANCH  18  19
HETATM   19  C   UNL     1      32.393   5.904 -15.518  1.00  0.00     0.027 C 
BRANCH  19  20
HETATM   20  C   UNL     1      33.849   5.825 -15.988  1.00  0.00     0.004 C 
BRANCH  20  21
HETATM   21  C   UNL     1      34.770   6.654 -15.086  1.00  0.00    -0.000 C 
BRANCH  21  22
HETATM   22  C   UNL     1      34.035   7.883 -14.538  1.00  0.00    -0.005 C 
HETATM   23  C   UNL     1      34.556   9.166 -15.178  1.00  0.00     0.005 C 
ENDBRANCH  21  22
ENDBRANCH  20  21
ENDBRANCH  19  20
ENDBRANCH  18  19
ENDBRANCH  16  17
ENDBRANCH  15  16
ENDBRANCH  13  14
ENDBRANCH  12  13
ENDBRANCH  10  11
ENDBRANCH   9  10
ENDBRANCH   7   8
ENDBRANCH   6   7
ENDBRANCH   5   6
ENDBRANCH   3   5
ENDBRANCH   1   3
TORSDOF 15
ENDMDL
MODEL 17
REMARK VINA RESULT:      -4.8      5.107      7.417
REMARK  15 active torsions:
REMARK  status: ('A' for Active; 'I' for Inactive)
REMARK    1  A    between atoms: O_1  and  C_22 
REMARK    2  A    between atoms: C_3  and  C_4 
REMARK    3  A    between atoms: C_3  and  C_5 
REMARK    4  A    between atoms: C_4  and  C_6 
REMARK    5  A    between atoms: C_5  and  C_7 
REMARK    6  A    between atoms: C_9  and  C_10 
REMARK    7  A    between atoms: C_9  and  C_13 
REMARK    8  A    between atoms: C_10  and  C_14 
REMARK    9  A    between atoms: C_11  and  C_12 
REMARK   10  A    between atoms: C_12  and  C_16 
REMARK   11  A    between atoms: C_13  and  C_22 
REMARK   12  A    between atoms: C_15  and  C_17 
REMARK   13  A    between atoms: C_15  and  C_20 
REMARK   14  A    between atoms: C_18  and  C_19 
REMARK   15  A    between atoms: C_18  and  C_21 
ROOT
HETATM    1  O   UNL     1      34.100   6.167 -12.412  1.00  0.00    -0.776 OA
HETATM    2  H   UNL     1      34.527   5.856 -13.223  1.00  0.00     0.167 HD
ENDROOT
BRANCH   1   3
HETATM    3  C   UNL     1      32.776   5.998 -12.206  1.00  0.00     0.139 C 
HETATM    4  O   UNL     1      32.379   5.093 -11.487  1.00  0.00    -0.650 OA
BRANCH   3   5
HETATM    5  C   UNL     1      31.792   6.919 -12.874  1.00  0.00     0.110 C 
BRANCH   5   6
HETATM    6  C   UNL     1      32.015   8.388 -12.489  1.00  0.00     0.014 C 
BRANCH   6   7
HETATM    7  C   UNL     1      31.162   9.354 -13.322  1.00  0.00     0.027 C 
BRANCH   7   8
HETATM    8  C   UNL     1      31.102   8.875 -14.751  1.00  0.00    -0.030 C 
HETATM    9  C   UNL     1      30.135   9.186 -15.634  1.00  0.00    -0.027 C 
BRANCH   9  10
HETATM   10  C   UNL     1      28.955  10.083 -15.359  1.00  0.00     0.053 C 
BRANCH  10  11
HETATM   11  C   UNL     1      29.272  11.524 -15.694  1.00  0.00    -0.027 C 
HETATM   12  C   UNL     1      29.357  12.565 -14.841  1.00  0.00    -0.027 C 
BRANCH  12  13
HETATM   13  C   UNL     1      29.174  12.530 -13.345  1.00  0.00     0.053 C 
BRANCH  13  14
HETATM   14  C   UNL     1      28.041  13.443 -12.941  1.00  0.00    -0.027 C 
HETATM   15  C   UNL     1      26.769  13.049 -12.726  1.00  0.00    -0.027 C 
BRANCH  15  16
HETATM   16  C   UNL     1      26.278  11.632 -12.872  1.00  0.00     0.053 C 
BRANCH  16  17
HETATM   17  C   UNL     1      24.855  11.590 -13.370  1.00  0.00    -0.027 C 
HETATM   18  C   UNL     1      24.516  11.537 -14.670  1.00  0.00    -0.030 C 
BRANCH  18  19
HETATM   19  C   UNL     1      25.497  11.526 -15.814  1.00  0.00     0.027 C 
BRANCH  19  20
HETATM   20  C   UNL     1      24.789  11.073 -17.095  1.00  0.00     0.004 C 
BRANCH  20  21
HETATM   21  C   UNL     1      24.664  12.225 -18.098  1.00  0.00    -0.000 C 
BRANCH  21  22
HETATM   22  C   UNL     1      23.926  11.771 -19.363  1.00  0.00    -0.005 C 
HETATM   23  C   UNL     1      24.696  12.160 -20.620  1.00  0.00     0.005 C 
ENDBRANCH  21  22
ENDBRANCH  20  21
ENDBRANCH  19  20
ENDBRANCH  18  19
ENDBRANCH  16  17
ENDBRANCH  15  16
ENDBRANCH  13  14
ENDBRANCH  12  13
ENDBRANCH  10  11
ENDBRANCH   9  10
ENDBRANCH   7   8
ENDBRANCH   6   7
ENDBRANCH   5   6
ENDBRANCH   3   5
ENDBRANCH   1   3
TORSDOF 15
ENDMDL
MODEL 18
REMARK VINA RESULT:      -4.8      1.377      2.138
REMARK  15 active torsions:
REMARK  status: ('A' for Active; 'I' for Inactive)
REMARK    1  A    between atoms: O_1  and  C_22 
REMARK    2  A    between atoms: C_3  and  C_4 
REMARK    3  A    between atoms: C_3  and  C_5 
REMARK    4  A    between atoms: C_4  and  C_6 
REMARK    5  A    between atoms: C_5  and  C_7 
REMARK    6  A    between atoms: C_9  and  C_10 
REMARK    7  A    between atoms: C_9  and  C_13 
REMARK    8  A    between atoms: C_10  and  C_14 
REMARK    9  A    between atoms: C_11  and  C_12 
REMARK   10  A    between atoms: C_12  and  C_16 
REMARK   11  A    between atoms: C_13  and  C_22 
REMARK   12  A    between atoms: C_15  and  C_17 
REMARK   13  A    between atoms: C_15  and  C_20 
REMARK   14  A    between atoms: C_18  and  C_19 
REMARK   15  A    between atoms: C_18  and  C_21 
ROOT
HETATM    1  O   UNL     1      25.686  10.376 -11.869  1.00  0.00    -0.776 OA
HETATM    2  H   UNL     1      26.080   9.822 -11.180  1.00  0.00     0.167 HD
ENDROOT
BRANCH   1   3
HETATM    3  C   UNL     1      26.044  11.668 -12.023  1.00  0.00     0.139 C 
HETATM    4  O   UNL     1      26.257  12.366 -11.042  1.00  0.00    -0.650 OA
BRANCH   3   5
HETATM    5  C   UNL     1      26.168  12.250 -13.404  1.00  0.00     0.110 C 
BRANCH   5   6
HETATM    6  C   UNL     1      24.844  12.841 -13.910  1.00  0.00     0.014 C 
BRANCH   6   7
HETATM    7  C   UNL     1      24.086  11.884 -14.838  1.00  0.00     0.027 C 
BRANCH   7   8
HETATM    8  C   UNL     1      25.062  11.162 -15.733  1.00  0.00    -0.030 C 
HETATM    9  C   UNL     1      25.228  11.394 -17.049  1.00  0.00    -0.027 C 
BRANCH   9  10
HETATM   10  C   UNL     1      24.484  12.430 -17.854  1.00  0.00     0.053 C 
BRANCH  10  11
HETATM   11  C   UNL     1      24.076  11.885 -19.205  1.00  0.00    -0.027 C 
HETATM   12  C   UNL     1      24.886  11.500 -20.213  1.00  0.00    -0.027 C 
BRANCH  12  13
HETATM   13  C   UNL     1      26.393  11.506 -20.219  1.00  0.00     0.053 C 
BRANCH  13  14
HETATM   14  C   UNL     1      26.903  12.869 -20.621  1.00  0.00    -0.027 C 
HETATM   15  C   UNL     1      27.730  13.636 -19.880  1.00  0.00    -0.027 C 
BRANCH  15  16
HETATM   16  C   UNL     1      28.260  13.254 -18.523  1.00  0.00     0.053 C 
BRANCH  16  17
HETATM   17  C   UNL     1      27.700  14.143 -17.441  1.00  0.00    -0.027 C 
HETATM   18  C   UNL     1      28.296  15.269 -17.012  1.00  0.00    -0.030 C 
BRANCH  18  19
HETATM   19  C   UNL     1      29.607  15.800 -17.534  1.00  0.00     0.027 C 
BRANCH  19  20
HETATM   20  C   UNL     1      30.009  17.049 -16.742  1.00  0.00     0.004 C 
BRANCH  20  21
HETATM   21  C   UNL     1      29.085  17.263 -15.538  1.00  0.00    -0.000 C 
BRANCH  21  22
HETATM   22  C   UNL     1      29.898  17.554 -14.271  1.00  0.00    -0.005 C 
HETATM   23  C   UNL     1      31.361  17.162 -14.452  1.00  0.00     0.005 C 
ENDBRANCH  21  22
ENDBRANCH  20  21
ENDBRANCH  19  20
ENDBRANCH  18  19
ENDBRANCH  16  17
ENDBRANCH  15  16
ENDBRANCH  13  14
ENDBRANCH  12  13
ENDBRANCH  10  11
ENDBRANCH   9  10
ENDBRANCH   7   8
ENDBRANCH   6   7
ENDBRANCH   5   6
ENDBRANCH   3   5
ENDBRANCH   1   3
TORSDOF 15
ENDMDL
MODEL 19
REMARK VINA RESULT:      -4.7      8.601     10.343
REMARK  15 active torsions:
REMARK  status: ('A' for Active; 'I' for Inactive)
REMARK    1  A    between atoms: O_1  and  C_22 
REMARK    2  A    between atoms: C_3  and  C_4 
REMARK    3  A    between atoms: C_3  and  C_5 
REMARK    4  A    between atoms: C_4  and  C_6 
REMARK    5  A    between atoms: C_5  and  C_7 
REMARK    6  A    between atoms: C_9  and  C_10 
REMARK    7  A    between atoms: C_9  and  C_13 
REMARK    8  A    between atoms: C_10  and  C_14 
REMARK    9  A    between atoms: C_11  and  C_12 
REMARK   10  A    between atoms: C_12  and  C_16 
REMARK   11  A    between atoms: C_13  and  C_22 
REMARK   12  A    between atoms: C_15  and  C_17 
REMARK   13  A    between atoms: C_15  and  C_20 
REMARK   14  A    between atoms: C_18  and  C_19 
REMARK   15  A    between atoms: C_18  and  C_21 
ROOT
HETATM    1  O   UNL     1      32.830   5.128 -15.991  1.00  0.00    -0.776 OA
HETATM    2  H   UNL     1      32.874   4.754 -16.882  1.00  0.00     0.167 HD
ENDROOT
BRANCH   1   3
HETATM    3  C   UNL     1      31.795   5.904 -15.605  1.00  0.00     0.139 C 
HETATM    4  O   UNL     1      31.446   5.923 -14.433  1.00  0.00    -0.650 OA
BRANCH   3   5
HETATM    5  C   UNL     1      31.065   6.737 -16.622  1.00  0.00     0.110 C 
BRANCH   5   6
HETATM    6  C   UNL     1      30.677   5.929 -17.868  1.00  0.00     0.014 C 
BRANCH   6   7
HETATM    7  C   UNL     1      31.520   6.294 -19.097  1.00  0.00     0.027 C 
BRANCH   7   8
HETATM    8  C   UNL     1      30.667   7.031 -20.098  1.00  0.00    -0.030 C 
HETATM    9  C   UNL     1      30.974   8.217 -20.656  1.00  0.00    -0.027 C 
BRANCH   9  10
HETATM   10  C   UNL     1      32.233   9.005 -20.397  1.00  0.00     0.053 C 
BRANCH  10  11
HETATM   11  C   UNL     1      33.086   9.101 -21.642  1.00  0.00    -0.027 C 
HETATM   12  C   UNL     1      34.151   8.340 -21.968  1.00  0.00    -0.027 C 
BRANCH  12  13
HETATM   13  C   UNL     1      34.728   7.199 -21.171  1.00  0.00     0.053 C 
BRANCH  13  14
HETATM   14  C   UNL     1      35.872   7.691 -20.316  1.00  0.00    -0.027 C 
HETATM   15  C   UNL     1      35.875   7.718 -18.968  1.00  0.00    -0.027 C 
BRANCH  15  16
HETATM   16  C   UNL     1      34.725   7.274 -18.103  1.00  0.00     0.053 C 
BRANCH  16  17
HETATM   17  C   UNL     1      34.335   8.341 -17.111  1.00  0.00    -0.027 C 
HETATM   18  C   UNL     1      34.713   8.340 -15.821  1.00  0.00    -0.030 C 
BRANCH  18  19
HETATM   19  C   UNL     1      35.565   7.276 -15.175  1.00  0.00     0.027 C 
BRANCH  19  20
HETATM   20  C   UNL     1      35.058   7.003 -13.755  1.00  0.00     0.004 C 
BRANCH  20  21
HETATM   21  C   UNL     1      34.010   8.037 -13.331  1.00  0.00    -0.000 C 
BRANCH  21  22
HETATM   22  C   UNL     1      33.794   8.005 -11.814  1.00  0.00    -0.005 C 
HETATM   23  C   UNL     1      35.075   7.615 -11.083  1.00  0.00     0.005 C 
ENDBRANCH  21  22
ENDBRANCH  20  21
ENDBRANCH  19  20
ENDBRANCH  18  19
ENDBRANCH  16  17
ENDBRANCH  15  16
ENDBRANCH  13  14
ENDBRANCH  12  13
ENDBRANCH  10  11
ENDBRANCH   9  10
ENDBRANCH   7   8
ENDBRANCH   6   7
ENDBRANCH   5   6
ENDBRANCH   3   5
ENDBRANCH   1   3
TORSDOF 15
ENDMDL
MODEL 20
REMARK VINA RESULT:      -4.7      9.653     13.075
REMARK  15 active torsions:
REMARK  status: ('A' for Active; 'I' for Inactive)
REMARK    1  A    between atoms: O_1  and  C_22 
REMARK    2  A    between atoms: C_3  and  C_4 
REMARK    3  A    between atoms: C_3  and  C_5 
REMARK    4  A    between atoms: C_4  and  C_6 
REMARK    5  A    between atoms: C_5  and  C_7 
REMARK    6  A    between atoms: C_9  and  C_10 
REMARK    7  A    between atoms: C_9  and  C_13 
REMARK    8  A    between atoms: C_10  and  C_14 
REMARK    9  A    between atoms: C_11  and  C_12 
REMARK   10  A    between atoms: C_12  and  C_16 
REMARK   11  A    between atoms: C_13  and  C_22 
REMARK   12  A    between atoms: C_15  and  C_17 
REMARK   13  A    between atoms: C_15  and  C_20 
REMARK   14  A    between atoms: C_18  and  C_19 
REMARK   15  A    between atoms: C_18  and  C_21 
ROOT
HETATM    1  O   UNL     1      34.468   9.357 -17.387  1.00  0.00    -0.776 OA
HETATM    2  H   UNL     1      34.981  10.172 -17.295  1.00  0.00     0.167 HD
ENDROOT
BRANCH   1   3
HETATM    3  C   UNL     1      34.976   8.161 -17.019  1.00  0.00     0.139 C 
HETATM    4  O   UNL     1      35.038   7.247 -17.828  1.00  0.00    -0.650 OA
BRANCH   3   5
HETATM    5  C   UNL     1      35.455   7.955 -15.609  1.00  0.00     0.110 C 
BRANCH   5   6
HETATM    6  C   UNL     1      34.296   7.892 -14.603  1.00  0.00     0.014 C 
BRANCH   6   7
HETATM    7  C   UNL     1      33.923   6.454 -14.220  1.00  0.00     0.027 C 
BRANCH   7   8
HETATM    8  C   UNL     1      32.667   6.044 -14.946  1.00  0.00    -0.030 C 
HETATM    9  C   UNL     1      31.412   6.229 -14.493  1.00  0.00    -0.027 C 
BRANCH   9  10
HETATM   10  C   UNL     1      31.042   6.898 -13.194  1.00  0.00     0.053 C 
BRANCH  10  11
HETATM   11  C   UNL     1      30.942   5.893 -12.068  1.00  0.00    -0.027 C 
HETATM   12  C   UNL     1      31.545   5.948 -10.863  1.00  0.00    -0.027 C 
BRANCH  12  13
HETATM   13  C   UNL     1      32.445   7.042 -10.348  1.00  0.00     0.053 C 
BRANCH  13  14
HETATM   14  C   UNL     1      33.865   6.536 -10.242  1.00  0.00    -0.027 C 
HETATM   15  C   UNL     1      34.709   6.807  -9.226  1.00  0.00    -0.027 C 
BRANCH  15  16
HETATM   16  C   UNL     1      34.370   7.676  -8.043  1.00  0.00     0.053 C 
BRANCH  16  17
HETATM   17  C   UNL     1      34.628   6.961  -6.740  1.00  0.00    -0.027 C 
HETATM   18  C   UNL     1      33.829   6.002  -6.240  1.00  0.00    -0.030 C 
BRANCH  18  19
HETATM   19  C   UNL     1      32.561   5.512  -6.893  1.00  0.00     0.027 C 
BRANCH  19  20
HETATM   20  C   UNL     1      31.347   6.048  -6.128  1.00  0.00     0.004 C 
BRANCH  20  21
HETATM   21  C   UNL     1      30.498   6.971  -7.010  1.00  0.00    -0.000 C 
BRANCH  21  22
HETATM   22  C   UNL     1      30.723   8.441  -6.638  1.00  0.00    -0.005 C 
HETATM   23  C   UNL     1      30.941   9.297  -7.881  1.00  0.00     0.005 C 
ENDBRANCH  21  22
ENDBRANCH  20  21
ENDBRANCH  19  20
ENDBRANCH  18  19
ENDBRANCH  16  17
ENDBRANCH  15  16
ENDBRANCH  13  14
ENDBRANCH  12  13
ENDBRANCH  10  11
ENDBRANCH   9  10
ENDBRANCH   7   8
ENDBRANCH   6   7
ENDBRANCH   5   6
ENDBRANCH   3   5
ENDBRANCH   1   3
TORSDOF 15
ENDMDL
