MODEL 1
REMARK VINA RESULT:      -6.1      0.000      0.000
REMARK  15 active torsions:
REMARK  status: ('A' for Active; 'I' for Inactive)
REMARK    1  A    between atoms: O_1  and  C_23 
REMARK    2  A    between atoms: C_3  and  C_7 
REMARK    3  A    between atoms: C_3  and  C_8 
REMARK    4  A    between atoms: C_4  and  C_10 
REMARK    5  A    between atoms: C_4  and  C_11 
REMARK    6  A    between atoms: C_5  and  C_12 
REMARK    7  A    between atoms: C_5  and  C_13 
REMARK    8  A    between atoms: C_6  and  C_15 
REMARK    9  A    between atoms: C_6  and  C_16 
REMARK   10  A    between atoms: C_7  and  C_23 
REMARK   11  A    between atoms: C_9  and  C_17 
REMARK   12  A    between atoms: C_9  and  C_18 
REMARK   13  A    between atoms: C_14  and  C_19 
REMARK   14  A    between atoms: C_14  and  C_20 
REMARK   15  A    between atoms: C_21  and  C_22 
ROOT
HETATM    1  O   UNL     1       4.502   9.622 -24.787  1.00  0.00    -0.776 OA
HETATM    2  H   UNL     1       4.091   9.756 -25.652  1.00  0.00     0.167 HD
ENDROOT
BRANCH   1   3
HETATM    3  C   UNL     1       3.814   9.817 -23.642  1.00  0.00     0.139 C 
HETATM    4  O   UNL     1       2.752  10.423 -23.662  1.00  0.00    -0.650 OA
BRANCH   3   5
HETATM    5  C   UNL     1       4.354   9.282 -22.347  1.00  0.00     0.113 C 
BRANCH   5   6
HETATM    6  C   UNL     1       3.216   8.855 -21.413  1.00  0.00     0.037 C 
BRANCH   6   7
HETATM    7  C   UNL     1       2.712  10.033 -20.614  1.00  0.00    -0.030 C 
HETATM    8  C   UNL     1       3.083  10.385 -19.365  1.00  0.00    -0.027 C 
BRANCH   8   9
HETATM    9  C   UNL     1       4.086   9.688 -18.470  1.00  0.00     0.053 C 
BRANCH   9  10
HETATM   10  C   UNL     1       3.430   8.574 -17.695  1.00  0.00    -0.027 C 
HETATM   11  C   UNL     1       3.467   8.419 -16.359  1.00  0.00    -0.027 C 
BRANCH  11  12
HETATM   12  C   UNL     1       4.124   9.364 -15.387  1.00  0.00     0.053 C 
BRANCH  12  13
HETATM   13  C   UNL     1       3.091  10.090 -14.561  1.00  0.00    -0.027 C 
HETATM   14  C   UNL     1       3.106  10.261 -13.226  1.00  0.00    -0.027 C 
BRANCH  14  15
HETATM   15  C   UNL     1       4.138   9.717 -12.274  1.00  0.00     0.053 C 
BRANCH  15  16
HETATM   16  C   UNL     1       3.462   8.738 -11.340  1.00  0.00    -0.027 C 
HETATM   17  C   UNL     1       3.163   8.907 -10.036  1.00  0.00    -0.027 C 
BRANCH  17  18
HETATM   18  C   UNL     1       3.418  10.132  -9.197  1.00  0.00     0.053 C 
BRANCH  18  19
HETATM   19  C   UNL     1       4.707   9.988  -8.422  1.00  0.00    -0.027 C 
HETATM   20  C   UNL     1       4.882   9.402  -7.220  1.00  0.00    -0.027 C 
BRANCH  20  21
HETATM   21  C   UNL     1       3.837   8.701  -6.389  1.00  0.00     0.053 C 
BRANCH  21  22
HETATM   22  C   UNL     1       3.050   9.694  -5.564  1.00  0.00    -0.027 C 
HETATM   23  C   UNL     1       3.197   9.960  -4.252  1.00  0.00    -0.031 C 
BRANCH  23  24
HETATM   24  C   UNL     1       4.171   9.307  -3.307  1.00  0.00     0.022 C 
HETATM   25  C   UNL     1       5.175  10.296  -2.729  1.00  0.00     0.009 C 
ENDBRANCH  23  24
ENDBRANCH  21  22
ENDBRANCH  20  21
ENDBRANCH  18  19
ENDBRANCH  17  18
ENDBRANCH  15  16
ENDBRANCH  14  15
ENDBRANCH  12  13
ENDBRANCH  11  12
ENDBRANCH   9  10
ENDBRANCH   8   9
ENDBRANCH   6   7
ENDBRANCH   5   6
ENDBRANCH   3   5
ENDBRANCH   1   3
TORSDOF 15
ENDMDL
MODEL 2
REMARK VINA RESULT:      -5.9     24.080     25.959
REMARK  15 active torsions:
REMARK  status: ('A' for Active; 'I' for Inactive)
REMARK    1  A    between atoms: O_1  and  C_23 
REMARK    2  A    between atoms: C_3  and  C_7 
REMARK    3  A    between atoms: C_3  and  C_8 
REMARK    4  A    between atoms: C_4  and  C_10 
REMARK    5  A    between atoms: C_4  and  C_11 
REMARK    6  A    between atoms: C_5  and  C_12 
REMARK    7  A    between atoms: C_5  and  C_13 
REMARK    8  A    between atoms: C_6  and  C_15 
REMARK    9  A    between atoms: C_6  and  C_16 
REMARK   10  A    between atoms: C_7  and  C_23 
REMARK   11  A    between atoms: C_9  and  C_17 
REMARK   12  A    between atoms: C_9  and  C_18 
REMARK   13  A    between atoms: C_14  and  C_19 
REMARK   14  A    between atoms: C_14  and  C_20 
REMARK   15  A    between atoms: C_21  and  C_22 
ROOT
HETATM    1  O   UNL     1      27.147  13.365  -8.762  1.00  0.00    -0.776 OA
HETATM    2  H   UNL     1      27.833  12.874  -9.236  1.00  0.00     0.167 HD
ENDROOT
BRANCH   1   3
HETATM    3  C   UNL     1      26.133  12.732  -8.135  1.00  0.00     0.139 C 
HETATM    4  O   UNL     1      25.909  12.956  -6.954  1.00  0.00    -0.650 OA
BRANCH   3   5
HETATM    5  C   UNL     1      25.281  11.754  -8.893  1.00  0.00     0.113 C 
BRANCH   5   6
HETATM    6  C   UNL     1      25.602  11.796 -10.391  1.00  0.00     0.037 C 
BRANCH   6   7
HETATM    7  C   UNL     1      24.412  12.293 -11.177  1.00  0.00    -0.030 C 
HETATM    8  C   UNL     1      24.220  12.196 -12.509  1.00  0.00    -0.027 C 
BRANCH   8   9
HETATM    9  C   UNL     1      25.146  11.570 -13.530  1.00  0.00     0.053 C 
BRANCH   9  10
HETATM   10  C   UNL     1      24.573  11.692 -14.920  1.00  0.00    -0.027 C 
HETATM   11  C   UNL     1      25.284  11.845 -16.052  1.00  0.00    -0.027 C 
BRANCH  11  12
HETATM   12  C   UNL     1      26.788  11.863 -16.143  1.00  0.00     0.053 C 
BRANCH  12  13
HETATM   13  C   UNL     1      27.310  13.278 -16.144  1.00  0.00    -0.027 C 
HETATM   14  C   UNL     1      28.019  13.873 -15.166  1.00  0.00    -0.027 C 
BRANCH  14  15
HETATM   15  C   UNL     1      28.396  13.259 -13.845  1.00  0.00     0.053 C 
BRANCH  15  16
HETATM   16  C   UNL     1      27.666  13.998 -12.745  1.00  0.00    -0.027 C 
HETATM   17  C   UNL     1      28.070  15.097 -12.076  1.00  0.00    -0.027 C 
BRANCH  17  18
HETATM   18  C   UNL     1      29.348  15.867 -12.280  1.00  0.00     0.053 C 
BRANCH  18  19
HETATM   19  C   UNL     1      29.053  17.299 -12.661  1.00  0.00    -0.027 C 
HETATM   20  C   UNL     1      29.177  17.868 -13.877  1.00  0.00    -0.027 C 
BRANCH  20  21
HETATM   21  C   UNL     1      29.588  17.190 -15.161  1.00  0.00     0.053 C 
BRANCH  21  22
HETATM   22  C   UNL     1      28.761  17.688 -16.322  1.00  0.00    -0.027 C 
HETATM   23  C   UNL     1      28.932  17.402 -17.628  1.00  0.00    -0.031 C 
BRANCH  23  24
HETATM   24  C   UNL     1      30.007  16.529 -18.221  1.00  0.00     0.022 C 
HETATM   25  C   UNL     1      29.557  15.083 -18.390  1.00  0.00     0.009 C 
ENDBRANCH  23  24
ENDBRANCH  21  22
ENDBRANCH  20  21
ENDBRANCH  18  19
ENDBRANCH  17  18
ENDBRANCH  15  16
ENDBRANCH  14  15
ENDBRANCH  12  13
ENDBRANCH  11  12
ENDBRANCH   9  10
ENDBRANCH   8   9
ENDBRANCH   6   7
ENDBRANCH   5   6
ENDBRANCH   3   5
ENDBRANCH   1   3
TORSDOF 15
ENDMDL
MODEL 3
REMARK VINA RESULT:      -5.8     28.648     30.996
REMARK  15 active torsions:
REMARK  status: ('A' for Active; 'I' for Inactive)
REMARK    1  A    between atoms: O_1  and  C_23 
REMARK    2  A    between atoms: C_3  and  C_7 
REMARK    3  A    between atoms: C_3  and  C_8 
REMARK    4  A    between atoms: C_4  and  C_10 
REMARK    5  A    between atoms: C_4  and  C_11 
REMARK    6  A    between atoms: C_5  and  C_12 
REMARK    7  A    between atoms: C_5  and  C_13 
REMARK    8  A    between atoms: C_6  and  C_15 
REMARK    9  A    between atoms: C_6  and  C_16 
REMARK   10  A    between atoms: C_7  and  C_23 
REMARK   11  A    between atoms: C_9  and  C_17 
REMARK   12  A    between atoms: C_9  and  C_18 
REMARK   13  A    between atoms: C_14  and  C_19 
REMARK   14  A    between atoms: C_14  and  C_20 
REMARK   15  A    between atoms: C_21  and  C_22 
ROOT
HETATM    1  O   UNL     1      29.392   9.926  -6.503  1.00  0.00    -0.776 OA
HETATM    2  H   UNL     1      29.154  10.685  -5.953  1.00  0.00     0.167 HD
ENDROOT
BRANCH   1   3
HETATM    3  C   UNL     1      30.185   8.938  -6.034  1.00  0.00     0.139 C 
HETATM    4  O   UNL     1      30.206   8.686  -4.838  1.00  0.00    -0.650 OA
BRANCH   3   5
HETATM    5  C   UNL     1      31.036   8.149  -6.988  1.00  0.00     0.113 C 
BRANCH   5   6
HETATM    6  C   UNL     1      30.691   6.657  -6.923  1.00  0.00     0.037 C 
BRANCH   6   7
HETATM    7  C   UNL     1      31.883   5.817  -7.315  1.00  0.00    -0.030 C 
HETATM    8  C   UNL     1      33.005   5.613  -6.592  1.00  0.00    -0.027 C 
BRANCH   8   9
HETATM    9  C   UNL     1      33.336   6.172  -5.225  1.00  0.00     0.053 C 
BRANCH   9  10
HETATM   10  C   UNL     1      34.813   6.443  -5.099  1.00  0.00    -0.027 C 
HETATM   11  C   UNL     1      35.488   7.424  -5.725  1.00  0.00    -0.027 C 
BRANCH  11  12
HETATM   12  C   UNL     1      34.879   8.470  -6.622  1.00  0.00     0.053 C 
BRANCH  12  13
HETATM   13  C   UNL     1      35.807   8.808  -7.762  1.00  0.00    -0.027 C 
HETATM   14  C   UNL     1      35.880   8.181  -8.951  1.00  0.00    -0.027 C 
BRANCH  14  15
HETATM   15  C   UNL     1      35.080   6.976  -9.369  1.00  0.00     0.053 C 
BRANCH  15  16
HETATM   16  C   UNL     1      34.970   6.972 -10.878  1.00  0.00    -0.027 C 
HETATM   17  C   UNL     1      34.065   6.326 -11.641  1.00  0.00    -0.027 C 
BRANCH  17  18
HETATM   18  C   UNL     1      32.927   5.462 -11.166  1.00  0.00     0.053 C 
BRANCH  18  19
HETATM   19  C   UNL     1      31.679   5.732 -11.975  1.00  0.00    -0.027 C 
HETATM   20  C   UNL     1      30.724   6.652 -11.728  1.00  0.00    -0.027 C 
BRANCH  20  21
HETATM   21  C   UNL     1      30.705   7.667 -10.612  1.00  0.00     0.053 C 
BRANCH  21  22
HETATM   22  C   UNL     1      30.335   9.035 -11.135  1.00  0.00    -0.027 C 
HETATM   23  C   UNL     1      31.171   9.983 -11.600  1.00  0.00    -0.031 C 
BRANCH  23  24
HETATM   24  C   UNL     1      32.673   9.893 -11.684  1.00  0.00     0.022 C 
HETATM   25  C   UNL     1      33.353  10.278 -10.376  1.00  0.00     0.009 C 
ENDBRANCH  23  24
ENDBRANCH  21  22
ENDBRANCH  20  21
ENDBRANCH  18  19
ENDBRANCH  17  18
ENDBRANCH  15  16
ENDBRANCH  14  15
ENDBRANCH  12  13
ENDBRANCH  11  12
ENDBRANCH   9  10
ENDBRANCH   8   9
ENDBRANCH   6   7
ENDBRANCH   5   6
ENDBRANCH   3   5
ENDBRANCH   1   3
TORSDOF 15
ENDMDL
MODEL 4
REMARK VINA RESULT:      -5.8     25.174     26.565
REMARK  15 active torsions:
REMARK  status: ('A' for Active; 'I' for Inactive)
REMARK    1  A    between atoms: O_1  and  C_23 
REMARK    2  A    between atoms: C_3  and  C_7 
REMARK    3  A    between atoms: C_3  and  C_8 
REMARK    4  A    between atoms: C_4  and  C_10 
REMARK    5  A    between atoms: C_4  and  C_11 
REMARK    6  A    between atoms: C_5  and  C_12 
REMARK    7  A    between atoms: C_5  and  C_13 
REMARK    8  A    between atoms: C_6  and  C_15 
REMARK    9  A    between atoms: C_6  and  C_16 
REMARK   10  A    between atoms: C_7  and  C_23 
REMARK   11  A    between atoms: C_9  and  C_17 
REMARK   12  A    between atoms: C_9  and  C_18 
REMARK   13  A    between atoms: C_14  and  C_19 
REMARK   14  A    between atoms: C_14  and  C_20 
REMARK   15  A    between atoms: C_21  and  C_22 
ROOT
HETATM    1  O   UNL     1      27.180  11.518  -9.000  1.00  0.00    -0.776 OA
HETATM    2  H   UNL     1      27.353  10.570  -9.091  1.00  0.00     0.167 HD
ENDROOT
BRANCH   1   3
HETATM    3  C   UNL     1      25.943  11.986  -8.731  1.00  0.00     0.139 C 
HETATM    4  O   UNL     1      25.791  12.879  -7.911  1.00  0.00    -0.650 OA
BRANCH   3   5
HETATM    5  C   UNL     1      24.755  11.407  -9.446  1.00  0.00     0.113 C 
BRANCH   5   6
HETATM    6  C   UNL     1      25.031  11.275 -10.948  1.00  0.00     0.037 C 
BRANCH   6   7
HETATM    7  C   UNL     1      24.496  12.474 -11.694  1.00  0.00    -0.030 C 
HETATM    8  C   UNL     1      24.058  12.507 -12.971  1.00  0.00    -0.027 C 
BRANCH   8   9
HETATM    9  C   UNL     1      23.997  11.358 -13.954  1.00  0.00     0.053 C 
BRANCH   9  10
HETATM   10  C   UNL     1      24.461  11.796 -15.321  1.00  0.00    -0.027 C 
HETATM   11  C   UNL     1      25.742  11.900 -15.719  1.00  0.00    -0.027 C 
BRANCH  11  12
HETATM   12  C   UNL     1      26.947  11.543 -14.890  1.00  0.00     0.053 C 
BRANCH  12  13
HETATM   13  C   UNL     1      27.918  10.705 -15.685  1.00  0.00    -0.027 C 
HETATM   14  C   UNL     1      29.152  10.325 -15.302  1.00  0.00    -0.027 C 
BRANCH  14  15
HETATM   15  C   UNL     1      29.836  10.702 -14.015  1.00  0.00     0.053 C 
BRANCH  15  16
HETATM   16  C   UNL     1      31.200  10.048 -13.986  1.00  0.00    -0.027 C 
HETATM   17  C   UNL     1      31.660   9.128 -13.115  1.00  0.00    -0.027 C 
BRANCH  17  18
HETATM   18  C   UNL     1      30.910   8.513 -11.962  1.00  0.00     0.053 C 
BRANCH  18  19
HETATM   19  C   UNL     1      30.473   7.106 -12.300  1.00  0.00    -0.027 C 
HETATM   20  C   UNL     1      30.943   5.954 -11.782  1.00  0.00    -0.027 C 
BRANCH  20  21
HETATM   21  C   UNL     1      31.982   5.800 -10.698  1.00  0.00     0.053 C 
BRANCH  21  22
HETATM   22  C   UNL     1      33.345   5.535 -11.293  1.00  0.00    -0.027 C 
HETATM   23  C   UNL     1      34.367   6.406 -11.409  1.00  0.00    -0.031 C 
BRANCH  23  24
HETATM   24  C   UNL     1      34.367   7.851 -10.984  1.00  0.00     0.022 C 
HETATM   25  C   UNL     1      35.662   8.566 -11.349  1.00  0.00     0.009 C 
ENDBRANCH  23  24
ENDBRANCH  21  22
ENDBRANCH  20  21
ENDBRANCH  18  19
ENDBRANCH  17  18
ENDBRANCH  15  16
ENDBRANCH  14  15
ENDBRANCH  12  13
ENDBRANCH  11  12
ENDBRANCH   9  10
ENDBRANCH   8   9
ENDBRANCH   6   7
ENDBRANCH   5   6
ENDBRANCH   3   5
ENDBRANCH   1   3
TORSDOF 15
ENDMDL
MODEL 5
REMARK VINA RESULT:      -5.7     24.897     27.228
REMARK  15 active torsions:
REMARK  status: ('A' for Active; 'I' for Inactive)
REMARK    1  A    between atoms: O_1  and  C_23 
REMARK    2  A    between atoms: C_3  and  C_7 
REMARK    3  A    between atoms: C_3  and  C_8 
REMARK    4  A    between atoms: C_4  and  C_10 
REMARK    5  A    between atoms: C_4  and  C_11 
REMARK    6  A    between atoms: C_5  and  C_12 
REMARK    7  A    between atoms: C_5  and  C_13 
REMARK    8  A    between atoms: C_6  and  C_15 
REMARK    9  A    between atoms: C_6  and  C_16 
REMARK   10  A    between atoms: C_7  and  C_23 
REMARK   11  A    between atoms: C_9  and  C_17 
REMARK   12  A    between atoms: C_9  and  C_18 
REMARK   13  A    between atoms: C_14  and  C_19 
REMARK   14  A    between atoms: C_14  and  C_20 
REMARK   15  A    between atoms: C_21  and  C_22 
ROOT
HETATM    1  O   UNL     1      24.239  10.774  -2.857  1.00  0.00    -0.776 OA
HETATM    2  H   UNL     1      23.860   9.937  -3.160  1.00  0.00     0.167 HD
ENDROOT
BRANCH   1   3
HETATM    3  C   UNL     1      25.342  11.298  -3.434  1.00  0.00     0.139 C 
HETATM    4  O   UNL     1      26.450  11.027  -2.995  1.00  0.00    -0.650 OA
BRANCH   3   5
HETATM    5  C   UNL     1      25.201  12.210  -4.620  1.00  0.00     0.113 C 
BRANCH   5   6
HETATM    6  C   UNL     1      26.318  11.958  -5.639  1.00  0.00     0.037 C 
BRANCH   6   7
HETATM    7  C   UNL     1      25.904  10.895  -6.629  1.00  0.00    -0.030 C 
HETATM    8  C   UNL     1      25.238  11.081  -7.789  1.00  0.00    -0.027 C 
BRANCH   8   9
HETATM    9  C   UNL     1      24.748  12.389  -8.371  1.00  0.00     0.053 C 
BRANCH   9  10
HETATM   10  C   UNL     1      23.917  12.149  -9.606  1.00  0.00    -0.027 C 
HETATM   11  C   UNL     1      24.372  12.148 -10.871  1.00  0.00    -0.027 C 
BRANCH  11  12
HETATM   12  C   UNL     1      25.810  12.328 -11.283  1.00  0.00     0.053 C 
BRANCH  12  13
HETATM   13  C   UNL     1      26.555  11.017 -11.225  1.00  0.00    -0.027 C 
HETATM   14  C   UNL     1      27.761  10.804 -10.667  1.00  0.00    -0.027 C 
BRANCH  14  15
HETATM   15  C   UNL     1      28.639  11.845 -10.027  1.00  0.00     0.053 C 
BRANCH  15  16
HETATM   16  C   UNL     1      29.102  11.325  -8.684  1.00  0.00    -0.027 C 
HETATM   17  C   UNL     1      30.116  10.475  -8.429  1.00  0.00    -0.027 C 
BRANCH  17  18
HETATM   18  C   UNL     1      31.052   9.849  -9.430  1.00  0.00     0.053 C 
BRANCH  18  19
HETATM   19  C   UNL     1      30.517   8.517  -9.900  1.00  0.00    -0.027 C 
HETATM   20  C   UNL     1      31.098   7.307  -9.770  1.00  0.00    -0.027 C 
BRANCH  20  21
HETATM   21  C   UNL     1      32.399   6.992  -9.074  1.00  0.00     0.053 C 
BRANCH  21  22
HETATM   22  C   UNL     1      33.236   6.044  -9.900  1.00  0.00    -0.027 C 
HETATM   23  C   UNL     1      34.357   6.334 -10.588  1.00  0.00    -0.031 C 
BRANCH  23  24
HETATM   24  C   UNL     1      35.016   7.684 -10.701  1.00  0.00     0.022 C 
HETATM   25  C   UNL     1      36.136   7.873  -9.686  1.00  0.00     0.009 C 
ENDBRANCH  23  24
ENDBRANCH  21  22
ENDBRANCH  20  21
ENDBRANCH  18  19
ENDBRANCH  17  18
ENDBRANCH  15  16
ENDBRANCH  14  15
ENDBRANCH  12  13
ENDBRANCH  11  12
ENDBRANCH   9  10
ENDBRANCH   8   9
ENDBRANCH   6   7
ENDBRANCH   5   6
ENDBRANCH   3   5
ENDBRANCH   1   3
TORSDOF 15
ENDMDL
MODEL 6
REMARK VINA RESULT:      -5.7     29.203     31.515
REMARK  15 active torsions:
REMARK  status: ('A' for Active; 'I' for Inactive)
REMARK    1  A    between atoms: O_1  and  C_23 
REMARK    2  A    between atoms: C_3  and  C_7 
REMARK    3  A    between atoms: C_3  and  C_8 
REMARK    4  A    between atoms: C_4  and  C_10 
REMARK    5  A    between atoms: C_4  and  C_11 
REMARK    6  A    between atoms: C_5  and  C_12 
REMARK    7  A    between atoms: C_5  and  C_13 
REMARK    8  A    between atoms: C_6  and  C_15 
REMARK    9  A    between atoms: C_6  and  C_16 
REMARK   10  A    between atoms: C_7  and  C_23 
REMARK   11  A    between atoms: C_9  and  C_17 
REMARK   12  A    between atoms: C_9  and  C_18 
REMARK   13  A    between atoms: C_14  and  C_19 
REMARK   14  A    between atoms: C_14  and  C_20 
REMARK   15  A    between atoms: C_21  and  C_22 
ROOT
HETATM    1  O   UNL     1      33.756   5.870  -9.286  1.00  0.00    -0.776 OA
HETATM    2  H   UNL     1      34.036   6.149 -10.169  1.00  0.00     0.167 HD
ENDROOT
BRANCH   1   3
HETATM    3  C   UNL     1      32.478   6.013  -8.875  1.00  0.00     0.139 C 
HETATM    4  O   UNL     1      32.209   5.966  -7.684  1.00  0.00    -0.650 OA
BRANCH   3   5
HETATM    5  C   UNL     1      31.390   6.233  -9.887  1.00  0.00     0.113 C 
BRANCH   5   6
HETATM    6  C   UNL     1      31.293   7.713 -10.274  1.00  0.00     0.037 C 
BRANCH   6   7
HETATM    7  C   UNL     1      31.355   7.876 -11.774  1.00  0.00    -0.030 C 
HETATM    8  C   UNL     1      32.463   7.894 -12.544  1.00  0.00    -0.027 C 
BRANCH   8   9
HETATM    9  C   UNL     1      33.901   7.755 -12.093  1.00  0.00     0.053 C 
BRANCH   9  10
HETATM   10  C   UNL     1      34.801   8.679 -12.874  1.00  0.00    -0.027 C 
HETATM   11  C   UNL     1      35.475   8.357 -13.993  1.00  0.00    -0.027 C 
BRANCH  11  12
HETATM   12  C   UNL     1      35.409   7.030 -14.703  1.00  0.00     0.053 C 
BRANCH  12  13
HETATM   13  C   UNL     1      35.088   7.217 -16.165  1.00  0.00    -0.027 C 
HETATM   14  C   UNL     1      34.124   6.587 -16.862  1.00  0.00    -0.027 C 
BRANCH  14  15
HETATM   15  C   UNL     1      33.196   5.526 -16.333  1.00  0.00     0.053 C 
BRANCH  15  16
HETATM   16  C   UNL     1      32.022   6.204 -15.663  1.00  0.00    -0.027 C 
HETATM   17  C   UNL     1      30.844   6.558 -16.215  1.00  0.00    -0.027 C 
BRANCH  17  18
HETATM   18  C   UNL     1      30.406   6.343 -17.640  1.00  0.00     0.053 C 
BRANCH  18  19
HETATM   19  C   UNL     1      30.797   7.521 -18.502  1.00  0.00    -0.027 C 
HETATM   20  C   UNL     1      31.385   7.492 -19.716  1.00  0.00    -0.027 C 
BRANCH  20  21
HETATM   21  C   UNL     1      31.741   6.269 -20.524  1.00  0.00     0.053 C 
BRANCH  21  22
HETATM   22  C   UNL     1      33.147   5.810 -20.216  1.00  0.00    -0.027 C 
HETATM   23  C   UNL     1      34.283   6.194 -20.831  1.00  0.00    -0.031 C 
BRANCH  23  24
HETATM   24  C   UNL     1      34.398   7.158 -21.983  1.00  0.00     0.022 C 
HETATM   25  C   UNL     1      35.490   8.198 -21.766  1.00  0.00     0.009 C 
ENDBRANCH  23  24
ENDBRANCH  21  22
ENDBRANCH  20  21
ENDBRANCH  18  19
ENDBRANCH  17  18
ENDBRANCH  15  16
ENDBRANCH  14  15
ENDBRANCH  12  13
ENDBRANCH  11  12
ENDBRANCH   9  10
ENDBRANCH   8   9
ENDBRANCH   6   7
ENDBRANCH   5   6
ENDBRANCH   3   5
ENDBRANCH   1   3
TORSDOF 15
ENDMDL
MODEL 7
REMARK VINA RESULT:      -5.7     29.225     31.518
REMARK  15 active torsions:
REMARK  status: ('A' for Active; 'I' for Inactive)
REMARK    1  A    between atoms: O_1  and  C_23 
REMARK    2  A    between atoms: C_3  and  C_7 
REMARK    3  A    between atoms: C_3  and  C_8 
REMARK    4  A    between atoms: C_4  and  C_10 
REMARK    5  A    between atoms: C_4  and  C_11 
REMARK    6  A    between atoms: C_5  and  C_12 
REMARK    7  A    between atoms: C_5  and  C_13 
REMARK    8  A    between atoms: C_6  and  C_15 
REMARK    9  A    between atoms: C_6  and  C_16 
REMARK   10  A    between atoms: C_7  and  C_23 
REMARK   11  A    between atoms: C_9  and  C_17 
REMARK   12  A    between atoms: C_9  and  C_18 
REMARK   13  A    between atoms: C_14  and  C_19 
REMARK   14  A    between atoms: C_14  and  C_20 
REMARK   15  A    between atoms: C_21  and  C_22 
ROOT
HETATM    1  O   UNL     1      32.619   5.945  -4.740  1.00  0.00    -0.776 OA
HETATM    2  H   UNL     1      31.726   5.694  -4.468  1.00  0.00     0.167 HD
ENDROOT
BRANCH   1   3
HETATM    3  C   UNL     1      33.013   5.859  -6.029  1.00  0.00     0.139 C 
HETATM    4  O   UNL     1      32.348   5.219  -6.831  1.00  0.00    -0.650 OA
BRANCH   3   5
HETATM    5  C   UNL     1      34.267   6.555  -6.473  1.00  0.00     0.113 C 
BRANCH   5   6
HETATM    6  C   UNL     1      34.043   7.295  -7.797  1.00  0.00     0.037 C 
BRANCH   6   7
HETATM    7  C   UNL     1      35.353   7.513  -8.514  1.00  0.00    -0.030 C 
HETATM    8  C   UNL     1      35.537   7.665  -9.843  1.00  0.00    -0.027 C 
BRANCH   8   9
HETATM    9  C   UNL     1      34.479   7.654 -10.927  1.00  0.00     0.053 C 
BRANCH   9  10
HETATM   10  C   UNL     1      34.245   6.253 -11.434  1.00  0.00    -0.027 C 
HETATM   11  C   UNL     1      33.158   5.500 -11.187  1.00  0.00    -0.027 C 
BRANCH  11  12
HETATM   12  C   UNL     1      31.948   5.941 -10.406  1.00  0.00     0.053 C 
BRANCH  12  13
HETATM   13  C   UNL     1      30.704   5.874 -11.257  1.00  0.00    -0.027 C 
HETATM   14  C   UNL     1      30.321   6.765 -12.190  1.00  0.00    -0.027 C 
BRANCH  14  15
HETATM   15  C   UNL     1      31.035   8.043 -12.543  1.00  0.00     0.053 C 
BRANCH  15  16
HETATM   16  C   UNL     1      30.989   8.220 -14.045  1.00  0.00    -0.027 C 
HETATM   17  C   UNL     1      31.620   7.487 -14.985  1.00  0.00    -0.027 C 
BRANCH  17  18
HETATM   18  C   UNL     1      32.512   6.295 -14.762  1.00  0.00     0.053 C 
BRANCH  18  19
HETATM   19  C   UNL     1      33.956   6.652 -15.029  1.00  0.00    -0.027 C 
HETATM   20  C   UNL     1      34.607   6.609 -16.209  1.00  0.00    -0.027 C 
BRANCH  20  21
HETATM   21  C   UNL     1      34.030   6.245 -17.555  1.00  0.00     0.053 C 
BRANCH  21  22
HETATM   22  C   UNL     1      34.233   7.365 -18.548  1.00  0.00    -0.027 C 
HETATM   23  C   UNL     1      33.351   8.326 -18.885  1.00  0.00    -0.031 C 
BRANCH  23  24
HETATM   24  C   UNL     1      31.950   8.484 -18.354  1.00  0.00     0.022 C 
HETATM   25  C   UNL     1      30.913   7.796 -19.232  1.00  0.00     0.009 C 
ENDBRANCH  23  24
ENDBRANCH  21  22
ENDBRANCH  20  21
ENDBRANCH  18  19
ENDBRANCH  17  18
ENDBRANCH  15  16
ENDBRANCH  14  15
ENDBRANCH  12  13
ENDBRANCH  11  12
ENDBRANCH   9  10
ENDBRANCH   8   9
ENDBRANCH   6   7
ENDBRANCH   5   6
ENDBRANCH   3   5
ENDBRANCH   1   3
TORSDOF 15
ENDMDL
MODEL 8
REMARK VINA RESULT:      -5.7     29.255     30.917
REMARK  15 active torsions:
REMARK  status: ('A' for Active; 'I' for Inactive)
REMARK    1  A    between atoms: O_1  and  C_23 
REMARK    2  A    between atoms: C_3  and  C_7 
REMARK    3  A    between atoms: C_3  and  C_8 
REMARK    4  A    between atoms: C_4  and  C_10 
REMARK    5  A    between atoms: C_4  and  C_11 
REMARK    6  A    between atoms: C_5  and  C_12 
REMARK    7  A    between atoms: C_5  and  C_13 
REMARK    8  A    between atoms: C_6  and  C_15 
REMARK    9  A    between atoms: C_6  and  C_16 
REMARK   10  A    between atoms: C_7  and  C_23 
REMARK   11  A    between atoms: C_9  and  C_17 
REMARK   12  A    between atoms: C_9  and  C_18 
REMARK   13  A    between atoms: C_14  and  C_19 
REMARK   14  A    between atoms: C_14  and  C_20 
REMARK   15  A    between atoms: C_21  and  C_22 
ROOT
HETATM    1  O   UNL     1      32.919   8.031  -6.991  1.00  0.00    -0.776 OA
HETATM    2  H   UNL     1      32.574   8.770  -7.510  1.00  0.00     0.167 HD
ENDROOT
BRANCH   1   3
HETATM    3  C   UNL     1      32.379   6.796  -7.080  1.00  0.00     0.139 C 
HETATM    4  O   UNL     1      32.780   5.899  -6.351  1.00  0.00    -0.650 OA
BRANCH   3   5
HETATM    5  C   UNL     1      31.284   6.530  -8.073  1.00  0.00     0.113 C 
BRANCH   5   6
HETATM    6  C   UNL     1      31.651   7.085  -9.454  1.00  0.00     0.037 C 
BRANCH   6   7
HETATM    7  C   UNL     1      32.299   6.017 -10.302  1.00  0.00    -0.030 C 
HETATM    8  C   UNL     1      31.871   5.559 -11.498  1.00  0.00    -0.027 C 
BRANCH   8   9
HETATM    9  C   UNL     1      30.647   6.003 -12.270  1.00  0.00     0.053 C 
BRANCH   9  10
HETATM   10  C   UNL     1      30.964   7.193 -13.140  1.00  0.00    -0.027 C 
HETATM   11  C   UNL     1      31.109   7.172 -14.478  1.00  0.00    -0.027 C 
BRANCH  11  12
HETATM   12  C   UNL     1      30.923   5.964 -15.358  1.00  0.00     0.053 C 
BRANCH  12  13
HETATM   13  C   UNL     1      30.771   6.369 -16.803  1.00  0.00    -0.027 C 
HETATM   14  C   UNL     1      31.736   6.374 -17.742  1.00  0.00    -0.027 C 
BRANCH  14  15
HETATM   15  C   UNL     1      33.184   6.020 -17.527  1.00  0.00     0.053 C 
BRANCH  15  16
HETATM   16  C   UNL     1      34.037   6.975 -18.332  1.00  0.00    -0.027 C 
HETATM   17  C   UNL     1      34.680   8.078 -17.900  1.00  0.00    -0.027 C 
BRANCH  17  18
HETATM   18  C   UNL     1      34.717   8.616 -16.493  1.00  0.00     0.053 C 
BRANCH  18  19
HETATM   19  C   UNL     1      35.889   8.039 -15.733  1.00  0.00    -0.027 C 
HETATM   20  C   UNL     1      35.863   7.399 -14.546  1.00  0.00    -0.027 C 
BRANCH  20  21
HETATM   21  C   UNL     1      34.646   7.059 -13.723  1.00  0.00     0.053 C 
BRANCH  21  22
HETATM   22  C   UNL     1      34.665   7.797 -12.404  1.00  0.00    -0.027 C 
HETATM   23  C   UNL     1      34.152   9.015 -12.145  1.00  0.00    -0.031 C 
BRANCH  23  24
HETATM   24  C   UNL     1      33.457   9.924 -13.125  1.00  0.00     0.022 C 
HETATM   25  C   UNL     1      34.361  11.046 -13.621  1.00  0.00     0.009 C 
ENDBRANCH  23  24
ENDBRANCH  21  22
ENDBRANCH  20  21
ENDBRANCH  18  19
ENDBRANCH  17  18
ENDBRANCH  15  16
ENDBRANCH  14  15
ENDBRANCH  12  13
ENDBRANCH  11  12
ENDBRANCH   9  10
ENDBRANCH   8   9
ENDBRANCH   6   7
ENDBRANCH   5   6
ENDBRANCH   3   5
ENDBRANCH   1   3
TORSDOF 15
ENDMDL
MODEL 9
REMARK VINA RESULT:      -5.7     24.178     25.404
REMARK  15 active torsions:
REMARK  status: ('A' for Active; 'I' for Inactive)
REMARK    1  A    between atoms: O_1  and  C_23 
REMARK    2  A    between atoms: C_3  and  C_7 
REMARK    3  A    between atoms: C_3  and  C_8 
REMARK    4  A    between atoms: C_4  and  C_10 
REMARK    5  A    between atoms: C_4  and  C_11 
REMARK    6  A    between atoms: C_5  and  C_12 
REMARK    7  A    between atoms: C_5  and  C_13 
REMARK    8  A    between atoms: C_6  and  C_15 
REMARK    9  A    between atoms: C_6  and  C_16 
REMARK   10  A    between atoms: C_7  and  C_23 
REMARK   11  A    between atoms: C_9  and  C_17 
REMARK   12  A    between atoms: C_9  and  C_18 
REMARK   13  A    between atoms: C_14  and  C_19 
REMARK   14  A    between atoms: C_14  and  C_20 
REMARK   15  A    between atoms: C_21  and  C_22 
ROOT
HETATM    1  O   UNL     1      34.528   8.858 -18.593  1.00  0.00    -0.776 OA
HETATM    2  H   UNL     1      35.424   8.511 -18.699  1.00  0.00     0.167 HD
ENDROOT
BRANCH   1   3
HETATM    3  C   UNL     1      33.465   8.036 -18.460  1.00  0.00     0.139 C 
HETATM    4  O   UNL     1      33.562   7.011 -17.800  1.00  0.00    -0.650 OA
BRANCH   3   5
HETATM    5  C   UNL     1      32.164   8.386 -19.123  1.00  0.00     0.113 C 
BRANCH   5   6
HETATM    6  C   UNL     1      31.293   9.245 -18.200  1.00  0.00     0.037 C 
BRANCH   6   7
HETATM    7  C   UNL     1      31.366  10.699 -18.599  1.00  0.00    -0.030 C 
HETATM    8  C   UNL     1      30.333  11.504 -18.927  1.00  0.00    -0.027 C 
BRANCH   8   9
HETATM    9  C   UNL     1      28.864  11.146 -18.973  1.00  0.00     0.053 C 
BRANCH   9  10
HETATM   10  C   UNL     1      28.438  10.803 -20.378  1.00  0.00    -0.027 C 
HETATM   11  C   UNL     1      27.355  11.288 -21.011  1.00  0.00    -0.027 C 
BRANCH  11  12
HETATM   12  C   UNL     1      26.399  12.309 -20.451  1.00  0.00     0.053 C 
BRANCH  12  13
HETATM   13  C   UNL     1      24.972  11.837 -20.579  1.00  0.00    -0.027 C 
HETATM   14  C   UNL     1      24.021  11.887 -19.628  1.00  0.00    -0.027 C 
BRANCH  14  15
HETATM   15  C   UNL     1      24.203  12.382 -18.217  1.00  0.00     0.053 C 
BRANCH  15  16
HETATM   16  C   UNL     1      24.865  11.291 -17.406  1.00  0.00    -0.027 C 
HETATM   17  C   UNL     1      24.956  11.195 -16.064  1.00  0.00    -0.027 C 
BRANCH  17  18
HETATM   18  C   UNL     1      24.398  12.152 -15.044  1.00  0.00     0.053 C 
BRANCH  18  19
HETATM   19  C   UNL     1      24.139  11.444 -13.735  1.00  0.00    -0.027 C 
HETATM   20  C   UNL     1      24.879  11.505 -12.609  1.00  0.00    -0.027 C 
BRANCH  20  21
HETATM   21  C   UNL     1      26.113  12.341 -12.375  1.00  0.00     0.053 C 
BRANCH  21  22
HETATM   22  C   UNL     1      27.316  11.725 -13.051  1.00  0.00    -0.027 C 
HETATM   23  C   UNL     1      28.075  12.272 -14.020  1.00  0.00    -0.031 C 
BRANCH  23  24
HETATM   24  C   UNL     1      27.878  13.622 -14.660  1.00  0.00     0.022 C 
HETATM   25  C   UNL     1      27.742  13.535 -16.175  1.00  0.00     0.009 C 
ENDBRANCH  23  24
ENDBRANCH  21  22
ENDBRANCH  20  21
ENDBRANCH  18  19
ENDBRANCH  17  18
ENDBRANCH  15  16
ENDBRANCH  14  15
ENDBRANCH  12  13
ENDBRANCH  11  12
ENDBRANCH   9  10
ENDBRANCH   8   9
ENDBRANCH   6   7
ENDBRANCH   5   6
ENDBRANCH   3   5
ENDBRANCH   1   3
TORSDOF 15
ENDMDL
MODEL 10
REMARK VINA RESULT:      -5.7     24.922     26.167
REMARK  15 active torsions:
REMARK  status: ('A' for Active; 'I' for Inactive)
REMARK    1  A    between atoms: O_1  and  C_23 
REMARK    2  A    between atoms: C_3  and  C_7 
REMARK    3  A    between atoms: C_3  and  C_8 
REMARK    4  A    between atoms: C_4  and  C_10 
REMARK    5  A    between atoms: C_4  and  C_11 
REMARK    6  A    between atoms: C_5  and  C_12 
REMARK    7  A    between atoms: C_5  and  C_13 
REMARK    8  A    between atoms: C_6  and  C_15 
REMARK    9  A    between atoms: C_6  and  C_16 
REMARK   10  A    between atoms: C_7  and  C_23 
REMARK   11  A    between atoms: C_9  and  C_17 
REMARK   12  A    between atoms: C_9  and  C_18 
REMARK   13  A    between atoms: C_14  and  C_19 
REMARK   14  A    between atoms: C_14  and  C_20 
REMARK   15  A    between atoms: C_21  and  C_22 
ROOT
HETATM    1  O   UNL     1      25.556  13.071 -17.483  1.00  0.00    -0.776 OA
HETATM    2  H   UNL     1      25.077  13.756 -17.970  1.00  0.00     0.167 HD
ENDROOT
BRANCH   1   3
HETATM    3  C   UNL     1      25.063  11.820 -17.362  1.00  0.00     0.139 C 
HETATM    4  O   UNL     1      24.732  11.192 -18.358  1.00  0.00    -0.650 OA
BRANCH   3   5
HETATM    5  C   UNL     1      24.926  11.201 -16.000  1.00  0.00     0.113 C 
BRANCH   5   6
HETATM    6  C   UNL     1      24.317  12.195 -15.005  1.00  0.00     0.037 C 
BRANCH   6   7
HETATM    7  C   UNL     1      24.069  11.531 -13.672  1.00  0.00    -0.030 C 
HETATM    8  C   UNL     1      24.999  11.106 -12.791  1.00  0.00    -0.027 C 
BRANCH   8   9
HETATM    9  C   UNL     1      26.504  11.192 -12.925  1.00  0.00     0.053 C 
BRANCH   9  10
HETATM   10  C   UNL     1      27.035  12.423 -12.235  1.00  0.00    -0.027 C 
HETATM   11  C   UNL     1      27.560  12.465 -10.998  1.00  0.00    -0.027 C 
BRANCH  11  12
HETATM   12  C   UNL     1      27.767  11.277 -10.095  1.00  0.00     0.053 C 
BRANCH  12  13
HETATM   13  C   UNL     1      29.181  11.240  -9.570  1.00  0.00    -0.027 C 
HETATM   14  C   UNL     1      30.105  10.292  -9.815  1.00  0.00    -0.027 C 
BRANCH  14  15
HETATM   15  C   UNL     1      29.898   9.042 -10.629  1.00  0.00     0.053 C 
BRANCH  15  16
HETATM   16  C   UNL     1      30.652   9.188 -11.933  1.00  0.00    -0.027 C 
HETATM   17  C   UNL     1      30.986   8.220 -12.809  1.00  0.00    -0.027 C 
BRANCH  17  18
HETATM   18  C   UNL     1      30.670   6.751 -12.706  1.00  0.00     0.053 C 
BRANCH  18  19
HETATM   19  C   UNL     1      31.937   5.941 -12.563  1.00  0.00    -0.027 C 
HETATM   20  C   UNL     1      32.594   5.638 -11.425  1.00  0.00    -0.027 C 
BRANCH  20  21
HETATM   21  C   UNL     1      32.186   5.993 -10.017  1.00  0.00     0.053 C 
BRANCH  21  22
HETATM   22  C   UNL     1      33.391   6.359  -9.183  1.00  0.00    -0.027 C 
HETATM   23  C   UNL     1      34.013   7.553  -9.130  1.00  0.00    -0.031 C 
BRANCH  23  24
HETATM   24  C   UNL     1      33.652   8.789  -9.911  1.00  0.00     0.022 C 
HETATM   25  C   UNL     1      34.446   8.914 -11.205  1.00  0.00     0.009 C 
ENDBRANCH  23  24
ENDBRANCH  21  22
ENDBRANCH  20  21
ENDBRANCH  18  19
ENDBRANCH  17  18
ENDBRANCH  15  16
ENDBRANCH  14  15
ENDBRANCH  12  13
ENDBRANCH  11  12
ENDBRANCH   9  10
ENDBRANCH   8   9
ENDBRANCH   6   7
ENDBRANCH   5   6
ENDBRANCH   3   5
ENDBRANCH   1   3
TORSDOF 15
ENDMDL
MODEL 11
REMARK VINA RESULT:      -5.7     23.385     24.519
REMARK  15 active torsions:
REMARK  status: ('A' for Active; 'I' for Inactive)
REMARK    1  A    between atoms: O_1  and  C_23 
REMARK    2  A    between atoms: C_3  and  C_7 
REMARK    3  A    between atoms: C_3  and  C_8 
REMARK    4  A    between atoms: C_4  and  C_10 
REMARK    5  A    between atoms: C_4  and  C_11 
REMARK    6  A    between atoms: C_5  and  C_12 
REMARK    7  A    between atoms: C_5  and  C_13 
REMARK    8  A    between atoms: C_6  and  C_15 
REMARK    9  A    between atoms: C_6  and  C_16 
REMARK   10  A    between atoms: C_7  and  C_23 
REMARK   11  A    between atoms: C_9  and  C_17 
REMARK   12  A    between atoms: C_9  and  C_18 
REMARK   13  A    between atoms: C_14  and  C_19 
REMARK   14  A    between atoms: C_14  and  C_20 
REMARK   15  A    between atoms: C_21  and  C_22 
ROOT
HETATM    1  O   UNL     1      29.676  15.775 -14.266  1.00  0.00    -0.776 OA
HETATM    2  H   UNL     1      28.762  15.606 -13.998  1.00  0.00     0.167 HD
ENDROOT
BRANCH   1   3
HETATM    3  C   UNL     1      30.311  14.976 -15.150  1.00  0.00     0.139 C 
HETATM    4  O   UNL     1      31.347  15.351 -15.680  1.00  0.00    -0.650 OA
BRANCH   3   5
HETATM    5  C   UNL     1      29.742  13.625 -15.477  1.00  0.00     0.113 C 
BRANCH   5   6
HETATM    6  C   UNL     1      29.608  13.439 -16.992  1.00  0.00     0.037 C 
BRANCH   6   7
HETATM    7  C   UNL     1      28.410  14.194 -17.517  1.00  0.00    -0.030 C 
HETATM    8  C   UNL     1      27.674  13.892 -18.608  1.00  0.00    -0.027 C 
BRANCH   8   9
HETATM    9  C   UNL     1      27.871  12.731 -19.560  1.00  0.00     0.053 C 
BRANCH   9  10
HETATM   10  C   UNL     1      27.127  12.965 -20.851  1.00  0.00    -0.027 C 
HETATM   11  C   UNL     1      25.995  12.344 -21.228  1.00  0.00    -0.027 C 
BRANCH  11  12
HETATM   12  C   UNL     1      25.230  11.342 -20.402  1.00  0.00     0.053 C 
BRANCH  12  13
HETATM   13  C   UNL     1      24.311  12.038 -19.429  1.00  0.00    -0.027 C 
HETATM   14  C   UNL     1      24.323  11.919 -18.088  1.00  0.00    -0.027 C 
BRANCH  14  15
HETATM   15  C   UNL     1      25.231  11.026 -17.285  1.00  0.00     0.053 C 
BRANCH  15  16
HETATM   16  C   UNL     1      25.927  11.865 -16.237  1.00  0.00    -0.027 C 
HETATM   17  C   UNL     1      25.567  12.050 -14.950  1.00  0.00    -0.027 C 
BRANCH  17  18
HETATM   18  C   UNL     1      24.386  11.444 -14.240  1.00  0.00     0.053 C 
BRANCH  18  19
HETATM   19  C   UNL     1      24.045  12.236 -13.000  1.00  0.00    -0.027 C 
HETATM   20  C   UNL     1      24.609  12.133 -11.779  1.00  0.00    -0.027 C 
BRANCH  20  21
HETATM   21  C   UNL     1      25.755  11.237 -11.379  1.00  0.00     0.053 C 
BRANCH  21  22
HETATM   22  C   UNL     1      27.001  12.047 -11.105  1.00  0.00    -0.027 C 
HETATM   23  C   UNL     1      28.153  12.031 -11.802  1.00  0.00    -0.031 C 
BRANCH  23  24
HETATM   24  C   UNL     1      28.461  11.180 -13.007  1.00  0.00     0.022 C 
HETATM   25  C   UNL     1      29.938  10.819 -13.104  1.00  0.00     0.009 C 
ENDBRANCH  23  24
ENDBRANCH  21  22
ENDBRANCH  20  21
ENDBRANCH  18  19
ENDBRANCH  17  18
ENDBRANCH  15  16
ENDBRANCH  14  15
ENDBRANCH  12  13
ENDBRANCH  11  12
ENDBRANCH   9  10
ENDBRANCH   8   9
ENDBRANCH   6   7
ENDBRANCH   5   6
ENDBRANCH   3   5
ENDBRANCH   1   3
TORSDOF 15
ENDMDL
MODEL 12
REMARK VINA RESULT:      -5.6     24.353     26.839
REMARK  15 active torsions:
REMARK  status: ('A' for Active; 'I' for Inactive)
REMARK    1  A    between atoms: O_1  and  C_23 
REMARK    2  A    between atoms: C_3  and  C_7 
REMARK    3  A    between atoms: C_3  and  C_8 
REMARK    4  A    between atoms: C_4  and  C_10 
REMARK    5  A    between atoms: C_4  and  C_11 
REMARK    6  A    between atoms: C_5  and  C_12 
REMARK    7  A    between atoms: C_5  and  C_13 
REMARK    8  A    between atoms: C_6  and  C_15 
REMARK    9  A    between atoms: C_6  and  C_16 
REMARK   10  A    between atoms: C_7  and  C_23 
REMARK   11  A    between atoms: C_9  and  C_17 
REMARK   12  A    between atoms: C_9  and  C_18 
REMARK   13  A    between atoms: C_14  and  C_19 
REMARK   14  A    between atoms: C_14  and  C_20 
REMARK   15  A    between atoms: C_21  and  C_22 
ROOT
HETATM    1  O   UNL     1      31.194   5.451  -7.217  1.00  0.00    -0.776 OA
HETATM    2  H   UNL     1      31.593   5.314  -6.347  1.00  0.00     0.167 HD
ENDROOT
BRANCH   1   3
HETATM    3  C   UNL     1      31.688   6.361  -8.084  1.00  0.00     0.139 C 
HETATM    4  O   UNL     1      32.808   6.215  -8.553  1.00  0.00    -0.650 OA
BRANCH   3   5
HETATM    5  C   UNL     1      30.856   7.550  -8.472  1.00  0.00     0.113 C 
BRANCH   5   6
HETATM    6  C   UNL     1      31.494   8.851  -7.972  1.00  0.00     0.037 C 
BRANCH   6   7
HETATM    7  C   UNL     1      31.520   8.885  -6.463  1.00  0.00    -0.030 C 
HETATM    8  C   UNL     1      30.505   9.226  -5.640  1.00  0.00    -0.027 C 
BRANCH   8   9
HETATM    9  C   UNL     1      29.106   9.653  -6.031  1.00  0.00     0.053 C 
BRANCH   9  10
HETATM   10  C   UNL     1      28.654  10.830  -5.205  1.00  0.00    -0.027 C 
HETATM   11  C   UNL     1      27.434  11.395  -5.244  1.00  0.00    -0.027 C 
BRANCH  11  12
HETATM   12  C   UNL     1      26.276  10.917  -6.081  1.00  0.00     0.053 C 
BRANCH  12  13
HETATM   13  C   UNL     1      25.319  12.046  -6.370  1.00  0.00    -0.027 C 
HETATM   14  C   UNL     1      24.531  12.174  -7.454  1.00  0.00    -0.027 C 
BRANCH  14  15
HETATM   15  C   UNL     1      24.481  11.234  -8.629  1.00  0.00     0.053 C 
BRANCH  15  16
HETATM   16  C   UNL     1      24.213  12.043  -9.880  1.00  0.00    -0.027 C 
HETATM   17  C   UNL     1      24.848  11.968 -11.067  1.00  0.00    -0.027 C 
BRANCH  17  18
HETATM   18  C   UNL     1      25.974  11.040 -11.439  1.00  0.00     0.053 C 
BRANCH  18  19
HETATM   19  C   UNL     1      27.028  11.773 -12.235  1.00  0.00    -0.027 C 
HETATM   20  C   UNL     1      28.365  11.608 -12.174  1.00  0.00    -0.027 C 
BRANCH  20  21
HETATM   21  C   UNL     1      29.121  10.609 -11.333  1.00  0.00     0.053 C 
BRANCH  21  22
HETATM   22  C   UNL     1      30.035  11.311 -10.356  1.00  0.00    -0.027 C 
HETATM   23  C   UNL     1      29.680  11.953  -9.225  1.00  0.00    -0.031 C 
BRANCH  23  24
HETATM   24  C   UNL     1      28.281  12.128  -8.694  1.00  0.00     0.022 C 
HETATM   25  C   UNL     1      27.725  13.520  -8.963  1.00  0.00     0.009 C 
ENDBRANCH  23  24
ENDBRANCH  21  22
ENDBRANCH  20  21
ENDBRANCH  18  19
ENDBRANCH  17  18
ENDBRANCH  15  16
ENDBRANCH  14  15
ENDBRANCH  12  13
ENDBRANCH  11  12
ENDBRANCH   9  10
ENDBRANCH   8   9
ENDBRANCH   6   7
ENDBRANCH   5   6
ENDBRANCH   3   5
ENDBRANCH   1   3
TORSDOF 15
ENDMDL
MODEL 13
REMARK VINA RESULT:      -5.6     29.068     29.920
REMARK  15 active torsions:
REMARK  status: ('A' for Active; 'I' for Inactive)
REMARK    1  A    between atoms: O_1  and  C_23 
REMARK    2  A    between atoms: C_3  and  C_7 
REMARK    3  A    between atoms: C_3  and  C_8 
REMARK    4  A    between atoms: C_4  and  C_10 
REMARK    5  A    between atoms: C_4  and  C_11 
REMARK    6  A    between atoms: C_5  and  C_12 
REMARK    7  A    between atoms: C_5  and  C_13 
REMARK    8  A    between atoms: C_6  and  C_15 
REMARK    9  A    between atoms: C_6  and  C_16 
REMARK   10  A    between atoms: C_7  and  C_23 
REMARK   11  A    between atoms: C_9  and  C_17 
REMARK   12  A    between atoms: C_9  and  C_18 
REMARK   13  A    between atoms: C_14  and  C_19 
REMARK   14  A    between atoms: C_14  and  C_20 
REMARK   15  A    between atoms: C_21  and  C_22 
ROOT
HETATM    1  O   UNL     1      34.945   9.057 -20.618  1.00  0.00    -0.776 OA
HETATM    2  H   UNL     1      35.119   9.811 -20.038  1.00  0.00     0.167 HD
ENDROOT
BRANCH   1   3
HETATM    3  C   UNL     1      35.243   7.796 -20.241  1.00  0.00     0.139 C 
HETATM    4  O   UNL     1      36.295   7.562 -19.662  1.00  0.00    -0.650 OA
BRANCH   3   5
HETATM    5  C   UNL     1      34.277   6.682 -20.531  1.00  0.00     0.113 C 
BRANCH   5   6
HETATM    6  C   UNL     1      32.836   7.120 -20.245  1.00  0.00     0.037 C 
BRANCH   6   7
HETATM    7  C   UNL     1      32.179   6.179 -19.264  1.00  0.00    -0.030 C 
HETATM    8  C   UNL     1      32.419   6.090 -17.938  1.00  0.00    -0.027 C 
BRANCH   8   9
HETATM    9  C   UNL     1      33.397   6.907 -17.122  1.00  0.00     0.053 C 
BRANCH   9  10
HETATM   10  C   UNL     1      33.810   6.163 -15.878  1.00  0.00    -0.027 C 
HETATM   11  C   UNL     1      33.203   6.238 -14.679  1.00  0.00    -0.027 C 
BRANCH  11  12
HETATM   12  C   UNL     1      31.962   7.036 -14.377  1.00  0.00     0.053 C 
BRANCH  12  13
HETATM   13  C   UNL     1      30.875   6.151 -13.820  1.00  0.00    -0.027 C 
HETATM   14  C   UNL     1      30.624   5.909 -12.520  1.00  0.00    -0.027 C 
BRANCH  14  15
HETATM   15  C   UNL     1      31.411   6.438 -11.351  1.00  0.00     0.053 C 
BRANCH  15  16
HETATM   16  C   UNL     1      32.643   5.578 -11.173  1.00  0.00    -0.027 C 
HETATM   17  C   UNL     1      33.931   5.975 -11.125  1.00  0.00    -0.027 C 
BRANCH  17  18
HETATM   18  C   UNL     1      34.452   7.385 -11.219  1.00  0.00     0.053 C 
BRANCH  18  19
HETATM   19  C   UNL     1      35.723   7.538 -10.415  1.00  0.00    -0.027 C 
HETATM   20  C   UNL     1      35.834   7.821  -9.101  1.00  0.00    -0.027 C 
BRANCH  20  21
HETATM   21  C   UNL     1      34.710   7.997  -8.110  1.00  0.00     0.053 C 
BRANCH  21  22
HETATM   22  C   UNL     1      34.217   6.658  -7.614  1.00  0.00    -0.027 C 
HETATM   23  C   UNL     1      32.937   6.278  -7.428  1.00  0.00    -0.031 C 
BRANCH  23  24
HETATM   24  C   UNL     1      31.709   7.120  -7.659  1.00  0.00     0.022 C 
HETATM   25  C   UNL     1      30.442   6.283  -7.778  1.00  0.00     0.009 C 
ENDBRANCH  23  24
ENDBRANCH  21  22
ENDBRANCH  20  21
ENDBRANCH  18  19
ENDBRANCH  17  18
ENDBRANCH  15  16
ENDBRANCH  14  15
ENDBRANCH  12  13
ENDBRANCH  11  12
ENDBRANCH   9  10
ENDBRANCH   8   9
ENDBRANCH   6   7
ENDBRANCH   5   6
ENDBRANCH   3   5
ENDBRANCH   1   3
TORSDOF 15
ENDMDL
MODEL 14
REMARK VINA RESULT:      -5.6     26.621     28.108
REMARK  15 active torsions:
REMARK  status: ('A' for Active; 'I' for Inactive)
REMARK    1  A    between atoms: O_1  and  C_23 
REMARK    2  A    between atoms: C_3  and  C_7 
REMARK    3  A    between atoms: C_3  and  C_8 
REMARK    4  A    between atoms: C_4  and  C_10 
REMARK    5  A    between atoms: C_4  and  C_11 
REMARK    6  A    between atoms: C_5  and  C_12 
REMARK    7  A    between atoms: C_5  and  C_13 
REMARK    8  A    between atoms: C_6  and  C_15 
REMARK    9  A    between atoms: C_6  and  C_16 
REMARK   10  A    between atoms: C_7  and  C_23 
REMARK   11  A    between atoms: C_9  and  C_17 
REMARK   12  A    between atoms: C_9  and  C_18 
REMARK   13  A    between atoms: C_14  and  C_19 
REMARK   14  A    between atoms: C_14  and  C_20 
REMARK   15  A    between atoms: C_21  and  C_22 
ROOT
HETATM    1  O   UNL     1      25.378  11.539 -13.374  1.00  0.00    -0.776 OA
HETATM    2  H   UNL     1      26.171  10.993 -13.285  1.00  0.00     0.167 HD
ENDROOT
BRANCH   1   3
HETATM    3  C   UNL     1      24.834  12.169 -12.312  1.00  0.00     0.139 C 
HETATM    4  O   UNL     1      23.884  12.924 -12.467  1.00  0.00    -0.650 OA
BRANCH   3   5
HETATM    5  C   UNL     1      25.397  11.938 -10.938  1.00  0.00     0.113 C 
BRANCH   5   6
HETATM    6  C   UNL     1      26.589  10.975 -10.991  1.00  0.00     0.037 C 
BRANCH   6   7
HETATM    7  C   UNL     1      27.850  11.663 -10.527  1.00  0.00    -0.030 C 
HETATM    8  C   UNL     1      29.055  11.092 -10.313  1.00  0.00    -0.027 C 
BRANCH   8   9
HETATM    9  C   UNL     1      29.428   9.635 -10.484  1.00  0.00     0.053 C 
BRANCH   9  10
HETATM   10  C   UNL     1      30.925   9.467 -10.532  1.00  0.00    -0.027 C 
HETATM   11  C   UNL     1      31.579   8.344 -10.882  1.00  0.00    -0.027 C 
BRANCH  11  12
HETATM   12  C   UNL     1      30.932   7.065 -11.345  1.00  0.00     0.053 C 
BRANCH  12  13
HETATM   13  C   UNL     1      31.367   6.719 -12.747  1.00  0.00    -0.027 C 
HETATM   14  C   UNL     1      32.568   6.240 -13.121  1.00  0.00    -0.027 C 
BRANCH  14  15
HETATM   15  C   UNL     1      33.745   5.996 -12.215  1.00  0.00     0.053 C 
BRANCH  15  16
HETATM   16  C   UNL     1      34.659   7.200 -12.278  1.00  0.00    -0.027 C 
HETATM   17  C   UNL     1      35.438   7.701 -11.299  1.00  0.00    -0.027 C 
BRANCH  17  18
HETATM   18  C   UNL     1      35.601   7.164  -9.901  1.00  0.00     0.053 C 
BRANCH  18  19
HETATM   19  C   UNL     1      34.969   8.097  -8.895  1.00  0.00    -0.027 C 
HETATM   20  C   UNL     1      34.164   7.769  -7.863  1.00  0.00    -0.027 C 
BRANCH  20  21
HETATM   21  C   UNL     1      33.750   6.382  -7.438  1.00  0.00     0.053 C 
BRANCH  21  22
HETATM   22  C   UNL     1      32.510   5.940  -8.180  1.00  0.00    -0.027 C 
HETATM   23  C   UNL     1      31.229   6.189  -7.847  1.00  0.00    -0.031 C 
BRANCH  23  24
HETATM   24  C   UNL     1      30.747   6.954  -6.642  1.00  0.00     0.022 C 
HETATM   25  C   UNL     1      30.652   8.452  -6.902  1.00  0.00     0.009 C 
ENDBRANCH  23  24
ENDBRANCH  21  22
ENDBRANCH  20  21
ENDBRANCH  18  19
ENDBRANCH  17  18
ENDBRANCH  15  16
ENDBRANCH  14  15
ENDBRANCH  12  13
ENDBRANCH  11  12
ENDBRANCH   9  10
ENDBRANCH   8   9
ENDBRANCH   6   7
ENDBRANCH   5   6
ENDBRANCH   3   5
ENDBRANCH   1   3
TORSDOF 15
ENDMDL
MODEL 15
REMARK VINA RESULT:      -5.6     28.252     29.261
REMARK  15 active torsions:
REMARK  status: ('A' for Active; 'I' for Inactive)
REMARK    1  A    between atoms: O_1  and  C_23 
REMARK    2  A    between atoms: C_3  and  C_7 
REMARK    3  A    between atoms: C_3  and  C_8 
REMARK    4  A    between atoms: C_4  and  C_10 
REMARK    5  A    between atoms: C_4  and  C_11 
REMARK    6  A    between atoms: C_5  and  C_12 
REMARK    7  A    between atoms: C_5  and  C_13 
REMARK    8  A    between atoms: C_6  and  C_15 
REMARK    9  A    between atoms: C_6  and  C_16 
REMARK   10  A    between atoms: C_7  and  C_23 
REMARK   11  A    between atoms: C_9  and  C_17 
REMARK   12  A    between atoms: C_9  and  C_18 
REMARK   13  A    between atoms: C_14  and  C_19 
REMARK   14  A    between atoms: C_14  and  C_20 
REMARK   15  A    between atoms: C_21  and  C_22 
ROOT
HETATM    1  O   UNL     1      29.055  10.708 -17.850  1.00  0.00    -0.776 OA
HETATM    2  H   UNL     1      28.969  11.641 -18.091  1.00  0.00     0.167 HD
ENDROOT
BRANCH   1   3
HETATM    3  C   UNL     1      29.471  10.334 -16.621  1.00  0.00     0.139 C 
HETATM    4  O   UNL     1      28.779  10.572 -15.641  1.00  0.00    -0.650 OA
BRANCH   3   5
HETATM    5  C   UNL     1      30.785   9.623 -16.463  1.00  0.00     0.113 C 
BRANCH   5   6
HETATM    6  C   UNL     1      30.576   8.201 -15.929  1.00  0.00     0.037 C 
BRANCH   6   7
HETATM    7  C   UNL     1      30.598   7.200 -17.059  1.00  0.00    -0.030 C 
HETATM    8  C   UNL     1      31.327   6.065 -17.124  1.00  0.00    -0.027 C 
BRANCH   8   9
HETATM    9  C   UNL     1      32.290   5.527 -16.088  1.00  0.00     0.053 C 
BRANCH   9  10
HETATM   10  C   UNL     1      33.716   5.822 -16.476  1.00  0.00    -0.027 C 
HETATM   11  C   UNL     1      34.584   6.570 -15.771  1.00  0.00    -0.027 C 
BRANCH  11  12
HETATM   12  C   UNL     1      34.306   7.203 -14.433  1.00  0.00     0.053 C 
BRANCH  12  13
HETATM   13  C   UNL     1      35.513   7.956 -13.932  1.00  0.00    -0.027 C 
HETATM   14  C   UNL     1      35.746   8.349 -12.666  1.00  0.00    -0.027 C 
BRANCH  14  15
HETATM   15  C   UNL     1      34.821   8.159 -11.493  1.00  0.00     0.053 C 
BRANCH  15  16
HETATM   16  C   UNL     1      35.617   7.592 -10.339  1.00  0.00    -0.027 C 
HETATM   17  C   UNL     1      35.155   6.923  -9.263  1.00  0.00    -0.027 C 
BRANCH  17  18
HETATM   18  C   UNL     1      33.725   6.560  -8.963  1.00  0.00     0.053 C 
BRANCH  18  19
HETATM   19  C   UNL     1      33.003   7.724  -8.325  1.00  0.00    -0.027 C 
HETATM   20  C   UNL     1      31.798   8.228  -8.664  1.00  0.00    -0.027 C 
BRANCH  20  21
HETATM   21  C   UNL     1      30.862   7.712  -9.728  1.00  0.00     0.053 C 
BRANCH  21  22
HETATM   22  C   UNL     1      31.153   8.361 -11.061  1.00  0.00    -0.027 C 
HETATM   23  C   UNL     1      31.232   7.756 -12.262  1.00  0.00    -0.031 C 
BRANCH  23  24
HETATM   24  C   UNL     1      31.064   6.284 -12.539  1.00  0.00     0.022 C 
HETATM   25  C   UNL     1      32.274   5.467 -12.103  1.00  0.00     0.009 C 
ENDBRANCH  23  24
ENDBRANCH  21  22
ENDBRANCH  20  21
ENDBRANCH  18  19
ENDBRANCH  17  18
ENDBRANCH  15  16
ENDBRANCH  14  15
ENDBRANCH  12  13
ENDBRANCH  11  12
ENDBRANCH   9  10
ENDBRANCH   8   9
ENDBRANCH   6   7
ENDBRANCH   5   6
ENDBRANCH   3   5
ENDBRANCH   1   3
TORSDOF 15
ENDMDL
MODEL 16
REMARK VINA RESULT:      -5.6     29.365     31.402
REMARK  15 active torsions:
REMARK  status: ('A' for Active; 'I' for Inactive)
REMARK    1  A    between atoms: O_1  and  C_23 
REMARK    2  A    between atoms: C_3  and  C_7 
REMARK    3  A    between atoms: C_3  and  C_8 
REMARK    4  A    between atoms: C_4  and  C_10 
REMARK    5  A    between atoms: C_4  and  C_11 
REMARK    6  A    between atoms: C_5  and  C_12 
REMARK    7  A    between atoms: C_5  and  C_13 
REMARK    8  A    between atoms: C_6  and  C_15 
REMARK    9  A    between atoms: C_6  and  C_16 
REMARK   10  A    between atoms: C_7  and  C_23 
REMARK   11  A    between atoms: C_9  and  C_17 
REMARK   12  A    between atoms: C_9  and  C_18 
REMARK   13  A    between atoms: C_14  and  C_19 
REMARK   14  A    between atoms: C_14  and  C_20 
REMARK   15  A    between atoms: C_21  and  C_22 
ROOT
HETATM    1  O   UNL     1      35.270  10.094 -14.667  1.00  0.00    -0.776 OA
HETATM    2  H   UNL     1      34.382   9.768 -14.467  1.00  0.00     0.167 HD
ENDROOT
BRANCH   1   3
HETATM    3  C   UNL     1      36.282   9.248 -14.956  1.00  0.00     0.139 C 
HETATM    4  O   UNL     1      37.276   9.659 -15.538  1.00  0.00    -0.650 OA
BRANCH   3   5
HETATM    5  C   UNL     1      36.183   7.803 -14.558  1.00  0.00     0.113 C 
BRANCH   5   6
HETATM    6  C   UNL     1      34.863   7.525 -13.829  1.00  0.00     0.037 C 
BRANCH   6   7
HETATM    7  C   UNL     1      35.054   7.606 -12.334  1.00  0.00    -0.030 C 
HETATM    8  C   UNL     1      34.432   6.862 -11.395  1.00  0.00    -0.027 C 
BRANCH   8   9
HETATM    9  C   UNL     1      33.400   5.776 -11.614  1.00  0.00     0.053 C 
BRANCH   9  10
HETATM   10  C   UNL     1      32.133   6.079 -10.853  1.00  0.00    -0.027 C 
HETATM   11  C   UNL     1      30.909   6.220 -11.392  1.00  0.00    -0.027 C 
BRANCH  11  12
HETATM   12  C   UNL     1      30.569   6.044 -12.849  1.00  0.00     0.053 C 
BRANCH  12  13
HETATM   13  C   UNL     1      31.019   7.238 -13.654  1.00  0.00    -0.027 C 
HETATM   14  C   UNL     1      31.473   7.226 -14.922  1.00  0.00    -0.027 C 
BRANCH  14  15
HETATM   15  C   UNL     1      31.670   6.007 -15.782  1.00  0.00     0.053 C 
BRANCH  15  16
HETATM   16  C   UNL     1      30.492   5.887 -16.724  1.00  0.00    -0.027 C 
HETATM   17  C   UNL     1      30.442   6.207 -18.033  1.00  0.00    -0.027 C 
BRANCH  17  18
HETATM   18  C   UNL     1      31.563   6.747 -18.880  1.00  0.00     0.053 C 
BRANCH  18  19
HETATM   19  C   UNL     1      31.436   6.261 -20.305  1.00  0.00    -0.027 C 
HETATM   20  C   UNL     1      32.429   5.872 -21.131  1.00  0.00    -0.027 C 
BRANCH  20  21
HETATM   21  C   UNL     1      33.899   5.780 -20.806  1.00  0.00     0.053 C 
BRANCH  21  22
HETATM   22  C   UNL     1      34.577   7.117 -20.995  1.00  0.00    -0.027 C 
HETATM   23  C   UNL     1      35.143   7.886 -20.044  1.00  0.00    -0.031 C 
BRANCH  23  24
HETATM   24  C   UNL     1      35.207   7.586 -18.569  1.00  0.00     0.022 C 
HETATM   25  C   UNL     1      34.302   8.496 -17.749  1.00  0.00     0.009 C 
ENDBRANCH  23  24
ENDBRANCH  21  22
ENDBRANCH  20  21
ENDBRANCH  18  19
ENDBRANCH  17  18
ENDBRANCH  15  16
ENDBRANCH  14  15
ENDBRANCH  12  13
ENDBRANCH  11  12
ENDBRANCH   9  10
ENDBRANCH   8   9
ENDBRANCH   6   7
ENDBRANCH   5   6
ENDBRANCH   3   5
ENDBRANCH   1   3
TORSDOF 15
ENDMDL
MODEL 17
REMARK VINA RESULT:      -5.6     27.739     29.683
REMARK  15 active torsions:
REMARK  status: ('A' for Active; 'I' for Inactive)
REMARK    1  A    between atoms: O_1  and  C_23 
REMARK    2  A    between atoms: C_3  and  C_7 
REMARK    3  A    between atoms: C_3  and  C_8 
REMARK    4  A    between atoms: C_4  and  C_10 
REMARK    5  A    between atoms: C_4  and  C_11 
REMARK    6  A    between atoms: C_5  and  C_12 
REMARK    7  A    between atoms: C_5  and  C_13 
REMARK    8  A    between atoms: C_6  and  C_15 
REMARK    9  A    between atoms: C_6  and  C_16 
REMARK   10  A    between atoms: C_7  and  C_23 
REMARK   11  A    between atoms: C_9  and  C_17 
REMARK   12  A    between atoms: C_9  and  C_18 
REMARK   13  A    between atoms: C_14  and  C_19 
REMARK   14  A    between atoms: C_14  and  C_20 
REMARK   15  A    between atoms: C_21  and  C_22 
ROOT
HETATM    1  O   UNL     1      26.165  12.790 -10.435  1.00  0.00    -0.776 OA
HETATM    2  H   UNL     1      25.295  13.037 -10.093  1.00  0.00     0.167 HD
ENDROOT
BRANCH   1   3
HETATM    3  C   UNL     1      26.803  11.682 -10.001  1.00  0.00     0.139 C 
HETATM    4  O   UNL     1      26.563  11.232  -8.890  1.00  0.00    -0.650 OA
BRANCH   3   5
HETATM    5  C   UNL     1      27.805  11.002 -10.890  1.00  0.00     0.113 C 
BRANCH   5   6
HETATM    6  C   UNL     1      29.021  10.532 -10.083  1.00  0.00     0.037 C 
BRANCH   6   7
HETATM    7  C   UNL     1      29.847   9.555 -10.885  1.00  0.00    -0.030 C 
HETATM    8  C   UNL     1      30.820   8.742 -10.422  1.00  0.00    -0.027 C 
BRANCH   8   9
HETATM    9  C   UNL     1      31.315   8.616  -8.998  1.00  0.00     0.053 C 
BRANCH   9  10
HETATM   10  C   UNL     1      30.907   7.292  -8.403  1.00  0.00    -0.027 C 
HETATM   11  C   UNL     1      31.671   6.186  -8.348  1.00  0.00    -0.027 C 
BRANCH  11  12
HETATM   12  C   UNL     1      33.098   6.086  -8.820  1.00  0.00     0.053 C 
BRANCH  12  13
HETATM   13  C   UNL     1      34.027   6.819  -7.884  1.00  0.00    -0.027 C 
HETATM   14  C   UNL     1      35.180   7.430  -8.214  1.00  0.00    -0.027 C 
BRANCH  14  15
HETATM   15  C   UNL     1      35.806   7.465  -9.582  1.00  0.00     0.053 C 
BRANCH  15  16
HETATM   16  C   UNL     1      35.256   8.657 -10.333  1.00  0.00    -0.027 C 
HETATM   17  C   UNL     1      34.443   8.657 -11.408  1.00  0.00    -0.027 C 
BRANCH  17  18
HETATM   18  C   UNL     1      33.868   7.456 -12.113  1.00  0.00     0.053 C 
BRANCH  18  19
HETATM   19  C   UNL     1      34.840   6.927 -13.142  1.00  0.00    -0.027 C 
HETATM   20  C   UNL     1      34.688   6.908 -14.482  1.00  0.00    -0.027 C 
BRANCH  20  21
HETATM   21  C   UNL     1      33.530   7.464 -15.274  1.00  0.00     0.053 C 
BRANCH  21  22
HETATM   22  C   UNL     1      32.532   6.378 -15.603  1.00  0.00    -0.027 C 
HETATM   23  C   UNL     1      31.351   6.146 -14.998  1.00  0.00    -0.031 C 
BRANCH  23  24
HETATM   24  C   UNL     1      30.771   6.912 -13.838  1.00  0.00     0.022 C 
HETATM   25  C   UNL     1      30.495   6.024 -12.631  1.00  0.00     0.009 C 
ENDBRANCH  23  24
ENDBRANCH  21  22
ENDBRANCH  20  21
ENDBRANCH  18  19
ENDBRANCH  17  18
ENDBRANCH  15  16
ENDBRANCH  14  15
ENDBRANCH  12  13
ENDBRANCH  11  12
ENDBRANCH   9  10
ENDBRANCH   8   9
ENDBRANCH   6   7
ENDBRANCH   5   6
ENDBRANCH   3   5
ENDBRANCH   1   3
TORSDOF 15
ENDMDL
MODEL 18
REMARK VINA RESULT:      -5.6     29.195     30.938
REMARK  15 active torsions:
REMARK  status: ('A' for Active; 'I' for Inactive)
REMARK    1  A    between atoms: O_1  and  C_23 
REMARK    2  A    between atoms: C_3  and  C_7 
REMARK    3  A    between atoms: C_3  and  C_8 
REMARK    4  A    between atoms: C_4  and  C_10 
REMARK    5  A    between atoms: C_4  and  C_11 
REMARK    6  A    between atoms: C_5  and  C_12 
REMARK    7  A    between atoms: C_5  and  C_13 
REMARK    8  A    between atoms: C_6  and  C_15 
REMARK    9  A    between atoms: C_6  and  C_16 
REMARK   10  A    between atoms: C_7  and  C_23 
REMARK   11  A    between atoms: C_9  and  C_17 
REMARK   12  A    between atoms: C_9  and  C_18 
REMARK   13  A    between atoms: C_14  and  C_19 
REMARK   14  A    between atoms: C_14  and  C_20 
REMARK   15  A    between atoms: C_21  and  C_22 
ROOT
HETATM    1  O   UNL     1      31.893  10.312  -8.048  1.00  0.00    -0.776 OA
HETATM    2  H   UNL     1      31.505  10.893  -8.716  1.00  0.00     0.167 HD
ENDROOT
BRANCH   1   3
HETATM    3  C   UNL     1      33.026   9.617  -8.290  1.00  0.00     0.139 C 
HETATM    4  O   UNL     1      33.892  10.091  -9.011  1.00  0.00    -0.650 OA
BRANCH   3   5
HETATM    5  C   UNL     1      33.218   8.263  -7.669  1.00  0.00     0.113 C 
BRANCH   5   6
HETATM    6  C   UNL     1      33.304   7.175  -8.745  1.00  0.00     0.037 C 
BRANCH   6   7
HETATM    7  C   UNL     1      34.743   6.812  -9.022  1.00  0.00    -0.030 C 
HETATM    8  C   UNL     1      35.342   6.726 -10.229  1.00  0.00    -0.027 C 
BRANCH   8   9
HETATM    9  C   UNL     1      34.718   6.971 -11.586  1.00  0.00     0.053 C 
BRANCH   9  10
HETATM   10  C   UNL     1      35.169   8.293 -12.154  1.00  0.00    -0.027 C 
HETATM   11  C   UNL     1      35.683   8.487 -13.382  1.00  0.00    -0.027 C 
BRANCH  11  12
HETATM   12  C   UNL     1      35.848   7.425 -14.437  1.00  0.00     0.053 C 
BRANCH  12  13
HETATM   13  C   UNL     1      35.441   7.946 -15.793  1.00  0.00    -0.027 C 
HETATM   14  C   UNL     1      34.582   7.365 -16.652  1.00  0.00    -0.027 C 
BRANCH  14  15
HETATM   15  C   UNL     1      33.886   6.045 -16.453  1.00  0.00     0.053 C 
BRANCH  15  16
HETATM   16  C   UNL     1      32.874   5.863 -17.563  1.00  0.00    -0.027 C 
HETATM   17  C   UNL     1      31.536   6.012 -17.497  1.00  0.00    -0.027 C 
BRANCH  17  18
HETATM   18  C   UNL     1      30.724   6.417 -16.294  1.00  0.00     0.053 C 
BRANCH  18  19
HETATM   19  C   UNL     1      30.685   7.921 -16.160  1.00  0.00    -0.027 C 
HETATM   20  C   UNL     1      31.225   8.673 -15.179  1.00  0.00    -0.027 C 
BRANCH  20  21
HETATM   21  C   UNL     1      32.046   8.188 -14.010  1.00  0.00     0.053 C 
BRANCH  21  22
HETATM   22  C   UNL     1      31.464   8.679 -12.704  1.00  0.00    -0.027 C 
HETATM   23  C   UNL     1      31.062   7.931 -11.659  1.00  0.00    -0.031 C 
BRANCH  23  24
HETATM   24  C   UNL     1      31.087   6.427 -11.570  1.00  0.00     0.022 C 
HETATM   25  C   UNL     1      30.054   5.772 -12.478  1.00  0.00     0.009 C 
ENDBRANCH  23  24
ENDBRANCH  21  22
ENDBRANCH  20  21
ENDBRANCH  18  19
ENDBRANCH  17  18
ENDBRANCH  15  16
ENDBRANCH  14  15
ENDBRANCH  12  13
ENDBRANCH  11  12
ENDBRANCH   9  10
ENDBRANCH   8   9
ENDBRANCH   6   7
ENDBRANCH   5   6
ENDBRANCH   3   5
ENDBRANCH   1   3
TORSDOF 15
ENDMDL
MODEL 19
REMARK VINA RESULT:      -5.6     28.364     29.882
REMARK  15 active torsions:
REMARK  status: ('A' for Active; 'I' for Inactive)
REMARK    1  A    between atoms: O_1  and  C_23 
REMARK    2  A    between atoms: C_3  and  C_7 
REMARK    3  A    between atoms: C_3  and  C_8 
REMARK    4  A    between atoms: C_4  and  C_10 
REMARK    5  A    between atoms: C_4  and  C_11 
REMARK    6  A    between atoms: C_5  and  C_12 
REMARK    7  A    between atoms: C_5  and  C_13 
REMARK    8  A    between atoms: C_6  and  C_15 
REMARK    9  A    between atoms: C_6  and  C_16 
REMARK   10  A    between atoms: C_7  and  C_23 
REMARK   11  A    between atoms: C_9  and  C_17 
REMARK   12  A    between atoms: C_9  and  C_18 
REMARK   13  A    between atoms: C_14  and  C_19 
REMARK   14  A    between atoms: C_14  and  C_20 
REMARK   15  A    between atoms: C_21  and  C_22 
ROOT
HETATM    1  O   UNL     1      33.795   5.910 -16.565  1.00  0.00    -0.776 OA
HETATM    2  H   UNL     1      34.256   6.221 -17.357  1.00  0.00     0.167 HD
ENDROOT
BRANCH   1   3
HETATM    3  C   UNL     1      34.217   6.246 -15.327  1.00  0.00     0.139 C 
HETATM    4  O   UNL     1      35.348   6.681 -15.162  1.00  0.00    -0.650 OA
BRANCH   3   5
HETATM    5  C   UNL     1      33.291   6.088 -14.155  1.00  0.00     0.113 C 
BRANCH   5   6
HETATM    6  C   UNL     1      31.845   6.404 -14.553  1.00  0.00     0.037 C 
BRANCH   6   7
HETATM    7  C   UNL     1      31.259   7.454 -13.641  1.00  0.00    -0.030 C 
HETATM    8  C   UNL     1      30.772   7.268 -12.396  1.00  0.00    -0.027 C 
BRANCH   8   9
HETATM    9  C   UNL     1      30.695   5.970 -11.620  1.00  0.00     0.053 C 
BRANCH   9  10
HETATM   10  C   UNL     1      31.916   5.791 -10.753  1.00  0.00    -0.027 C 
HETATM   11  C   UNL     1      32.041   6.202  -9.478  1.00  0.00    -0.027 C 
BRANCH  11  12
HETATM   12  C   UNL     1      30.961   6.867  -8.664  1.00  0.00     0.053 C 
BRANCH  12  13
HETATM   13  C   UNL     1      31.172   8.359  -8.608  1.00  0.00    -0.027 C 
HETATM   14  C   UNL     1      30.856   9.177  -7.587  1.00  0.00    -0.027 C 
BRANCH  14  15
HETATM   15  C   UNL     1      30.179   8.773  -6.304  1.00  0.00     0.053 C 
BRANCH  15  16
HETATM   16  C   UNL     1      31.110   9.081  -5.152  1.00  0.00    -0.027 C 
HETATM   17  C   UNL     1      31.888   8.223  -4.462  1.00  0.00    -0.027 C 
BRANCH  17  18
HETATM   18  C   UNL     1      32.031   6.741  -4.690  1.00  0.00     0.053 C 
BRANCH  18  19
HETATM   19  C   UNL     1      33.462   6.305  -4.481  1.00  0.00    -0.027 C 
HETATM   20  C   UNL     1      34.462   6.309  -5.385  1.00  0.00    -0.027 C 
BRANCH  20  21
HETATM   21  C   UNL     1      34.400   6.805  -6.809  1.00  0.00     0.053 C 
BRANCH  21  22
HETATM   22  C   UNL     1      34.960   8.204  -6.917  1.00  0.00    -0.027 C 
HETATM   23  C   UNL     1      35.125   8.931  -8.039  1.00  0.00    -0.031 C 
BRANCH  23  24
HETATM   24  C   UNL     1      34.801   8.498  -9.445  1.00  0.00     0.022 C 
HETATM   25  C   UNL     1      35.938   7.717 -10.091  1.00  0.00     0.009 C 
ENDBRANCH  23  24
ENDBRANCH  21  22
ENDBRANCH  20  21
ENDBRANCH  18  19
ENDBRANCH  17  18
ENDBRANCH  15  16
ENDBRANCH  14  15
ENDBRANCH  12  13
ENDBRANCH  11  12
ENDBRANCH   9  10
ENDBRANCH   8   9
ENDBRANCH   6   7
ENDBRANCH   5   6
ENDBRANCH   3   5
ENDBRANCH   1   3
TORSDOF 15
ENDMDL
MODEL 20
REMARK VINA RESULT:      -5.6     26.433     28.136
REMARK  15 active torsions:
REMARK  status: ('A' for Active; 'I' for Inactive)
REMARK    1  A    between atoms: O_1  and  C_23 
REMARK    2  A    between atoms: C_3  and  C_7 
REMARK    3  A    between atoms: C_3  and  C_8 
REMARK    4  A    between atoms: C_4  and  C_10 
REMARK    5  A    between atoms: C_4  and  C_11 
REMARK    6  A    between atoms: C_5  and  C_12 
REMARK    7  A    between atoms: C_5  and  C_13 
REMARK    8  A    between atoms: C_6  and  C_15 
REMARK    9  A    between atoms: C_6  and  C_16 
REMARK   10  A    between atoms: C_7  and  C_23 
REMARK   11  A    between atoms: C_9  and  C_17 
REMARK   12  A    between atoms: C_9  and  C_18 
REMARK   13  A    between atoms: C_14  and  C_19 
REMARK   14  A    between atoms: C_14  and  C_20 
REMARK   15  A    between atoms: C_21  and  C_22 
ROOT
HETATM    1  O   UNL     1      31.578   5.493 -12.704  1.00  0.00    -0.776 OA
HETATM    2  H   UNL     1      31.727   5.702 -11.772  1.00  0.00     0.167 HD
ENDROOT
BRANCH   1   3
HETATM    3  C   UNL     1      32.015   6.308 -13.687  1.00  0.00     0.139 C 
HETATM    4  O   UNL     1      31.282   6.584 -14.626  1.00  0.00    -0.650 OA
BRANCH   3   5
HETATM    5  C   UNL     1      33.403   6.879 -13.621  1.00  0.00     0.113 C 
BRANCH   5   6
HETATM    6  C   UNL     1      33.706   7.421 -12.220  1.00  0.00     0.037 C 
BRANCH   6   7
HETATM    7  C   UNL     1      34.693   6.530 -11.505  1.00  0.00    -0.030 C 
HETATM    8  C   UNL     1      35.102   6.635 -10.223  1.00  0.00    -0.027 C 
BRANCH   8   9
HETATM    9  C   UNL     1      34.674   7.667  -9.201  1.00  0.00     0.053 C 
BRANCH   9  10
HETATM   10  C   UNL     1      34.659   7.074  -7.815  1.00  0.00    -0.027 C 
HETATM   11  C   UNL     1      33.667   6.333  -7.288  1.00  0.00    -0.027 C 
BRANCH  11  12
HETATM   12  C   UNL     1      32.414   5.911  -8.010  1.00  0.00     0.053 C 
BRANCH  12  13
HETATM   13  C   UNL     1      31.255   6.804  -7.643  1.00  0.00    -0.027 C 
HETATM   14  C   UNL     1      30.634   7.685  -8.450  1.00  0.00    -0.027 C 
BRANCH  14  15
HETATM   15  C   UNL     1      31.003   7.995  -9.876  1.00  0.00     0.053 C 
BRANCH  15  16
HETATM   16  C   UNL     1      31.339   9.466  -9.977  1.00  0.00    -0.027 C 
HETATM   17  C   UNL     1      30.496  10.496 -10.197  1.00  0.00    -0.027 C 
BRANCH  17  18
HETATM   18  C   UNL     1      29.003  10.425 -10.378  1.00  0.00     0.053 C 
BRANCH  18  19
HETATM   19  C   UNL     1      28.556  11.349 -11.486  1.00  0.00    -0.027 C 
HETATM   20  C   UNL     1      27.316  11.472 -12.003  1.00  0.00    -0.027 C 
BRANCH  20  21
HETATM   21  C   UNL     1      26.068  10.751 -11.555  1.00  0.00     0.053 C 
BRANCH  21  22
HETATM   22  C   UNL     1      25.059  11.723 -10.989  1.00  0.00    -0.027 C 
HETATM   23  C   UNL     1      24.959  12.143  -9.712  1.00  0.00    -0.031 C 
BRANCH  23  24
HETATM   24  C   UNL     1      25.826  11.716  -8.557  1.00  0.00     0.022 C 
HETATM   25  C   UNL     1      25.043  10.967  -7.486  1.00  0.00     0.009 C 
ENDBRANCH  23  24
ENDBRANCH  21  22
ENDBRANCH  20  21
ENDBRANCH  18  19
ENDBRANCH  17  18
ENDBRANCH  15  16
ENDBRANCH  14  15
ENDBRANCH  12  13
ENDBRANCH  11  12
ENDBRANCH   9  10
ENDBRANCH   8   9
ENDBRANCH   6   7
ENDBRANCH   5   6
ENDBRANCH   3   5
ENDBRANCH   1   3
TORSDOF 15
ENDMDL
