MODEL 1
REMARK VINA RESULT:      -5.7      0.000      0.000
REMARK  16 active torsions:
REMARK  status: ('A' for Active; 'I' for Inactive)
REMARK    1  A    between atoms: O_1  and  C_20 
REMARK    2  A    between atoms: C_3  and  C_4 
REMARK    3  A    between atoms: C_3  and  C_5 
REMARK    4  A    between atoms: C_4  and  C_8 
REMARK    5  A    between atoms: C_5  and  C_11 
REMARK    6  A    between atoms: C_6  and  C_7 
REMARK    7  A    between atoms: C_6  and  C_9 
REMARK    8  A    between atoms: C_7  and  C_10 
REMARK    9  A    between atoms: C_8  and  C_12 
REMARK   10  A    between atoms: C_9  and  C_13 
REMARK   11  A    between atoms: C_10  and  C_14 
REMARK   12  A    between atoms: C_11  and  C_15 
REMARK   13  A    between atoms: C_12  and  C_16 
REMARK   14  A    between atoms: C_13  and  C_17 
REMARK   15  A    between atoms: C_14  and  C_18 
REMARK   16  A    between atoms: C_18  and  C_20 
ROOT
HETATM    1  O   UNL     1      26.319  13.313  -7.403  1.00  0.00    -0.776 OA
HETATM    2  H   UNL     1      26.801  13.882  -8.021  1.00  0.00     0.167 HD
ENDROOT
BRANCH   1   3
HETATM    3  C   UNL     1      25.724  12.173  -7.812  1.00  0.00     0.139 C 
HETATM    4  O   UNL     1      26.352  11.122  -7.798  1.00  0.00    -0.650 OA
BRANCH   3   5
HETATM    5  C   UNL     1      24.293  12.221  -8.279  1.00  0.00     0.110 C 
BRANCH   5   6
HETATM    6  C   UNL     1      24.059  11.451  -9.586  1.00  0.00     0.010 C 
BRANCH   6   7
HETATM    7  C   UNL     1      24.611  12.228 -10.788  1.00  0.00     0.001 C 
BRANCH   7   8
HETATM    8  C   UNL     1      25.610  11.375 -11.577  1.00  0.00     0.000 C 
BRANCH   8   9
HETATM    9  C   UNL     1      25.040  10.982 -12.945  1.00  0.00     0.000 C 
BRANCH   9  10
HETATM   10  C   UNL     1      24.107  12.074 -13.479  1.00  0.00     0.004 C 
BRANCH  10  11
HETATM   11  C   UNL     1      24.330  12.316 -14.974  1.00  0.00     0.027 C 
BRANCH  11  12
HETATM   12  C   UNL     1      24.822  11.044 -15.621  1.00  0.00    -0.031 C 
HETATM   13  C   UNL     1      25.852  10.924 -16.483  1.00  0.00    -0.031 C 
BRANCH  13  14
HETATM   14  C   UNL     1      26.739  12.034 -17.005  1.00  0.00     0.027 C 
BRANCH  14  15
HETATM   15  C   UNL     1      27.035  11.852 -18.504  1.00  0.00     0.004 C 
BRANCH  15  16
HETATM   16  C   UNL     1      26.022  12.543 -19.440  1.00  0.00     0.000 C 
BRANCH  16  17
HETATM   17  C   UNL     1      25.035  11.563 -20.095  1.00  0.00     0.000 C 
BRANCH  17  18
HETATM   18  C   UNL     1      24.373  12.188 -21.331  1.00  0.00     0.000 C 
BRANCH  18  19
HETATM   19  C   UNL     1      24.789  11.450 -22.609  1.00  0.00    -0.000 C 
BRANCH  19  20
HETATM   20  C   UNL     1      24.157  12.094 -23.849  1.00  0.00    -0.005 C 
HETATM   21  C   UNL     1      24.820  11.594 -25.128  1.00  0.00     0.005 C 
ENDBRANCH  19  20
ENDBRANCH  18  19
ENDBRANCH  17  18
ENDBRANCH  16  17
ENDBRANCH  15  16
ENDBRANCH  14  15
ENDBRANCH  13  14
ENDBRANCH  11  12
ENDBRANCH  10  11
ENDBRANCH   9  10
ENDBRANCH   8   9
ENDBRANCH   7   8
ENDBRANCH   6   7
ENDBRANCH   5   6
ENDBRANCH   3   5
ENDBRANCH   1   3
TORSDOF 16
ENDMDL
MODEL 2
REMARK VINA RESULT:      -5.5      1.579      2.897
REMARK  16 active torsions:
REMARK  status: ('A' for Active; 'I' for Inactive)
REMARK    1  A    between atoms: O_1  and  C_20 
REMARK    2  A    between atoms: C_3  and  C_4 
REMARK    3  A    between atoms: C_3  and  C_5 
REMARK    4  A    between atoms: C_4  and  C_8 
REMARK    5  A    between atoms: C_5  and  C_11 
REMARK    6  A    between atoms: C_6  and  C_7 
REMARK    7  A    between atoms: C_6  and  C_9 
REMARK    8  A    between atoms: C_7  and  C_10 
REMARK    9  A    between atoms: C_8  and  C_12 
REMARK   10  A    between atoms: C_9  and  C_13 
REMARK   11  A    between atoms: C_10  and  C_14 
REMARK   12  A    between atoms: C_11  and  C_15 
REMARK   13  A    between atoms: C_12  and  C_16 
REMARK   14  A    between atoms: C_13  and  C_17 
REMARK   15  A    between atoms: C_14  and  C_18 
REMARK   16  A    between atoms: C_18  and  C_20 
ROOT
HETATM    1  O   UNL     1      24.852  12.639  -7.988  1.00  0.00    -0.776 OA
HETATM    2  H   UNL     1      24.921  13.605  -7.996  1.00  0.00     0.167 HD
ENDROOT
BRANCH   1   3
HETATM    3  C   UNL     1      24.467  11.952  -9.084  1.00  0.00     0.139 C 
HETATM    4  O   UNL     1      23.510  11.192  -9.018  1.00  0.00    -0.650 OA
BRANCH   3   5
HETATM    5  C   UNL     1      25.229  12.138 -10.369  1.00  0.00     0.110 C 
BRANCH   5   6
HETATM    6  C   UNL     1      24.317  12.337 -11.588  1.00  0.00     0.010 C 
BRANCH   6   7
HETATM    7  C   UNL     1      25.051  11.983 -12.887  1.00  0.00     0.001 C 
BRANCH   7   8
HETATM    8  C   UNL     1      24.072  11.455 -13.941  1.00  0.00     0.000 C 
BRANCH   8   9
HETATM    9  C   UNL     1      24.343  12.086 -15.312  1.00  0.00     0.000 C 
BRANCH   9  10
HETATM   10  C   UNL     1      25.560  11.437 -15.978  1.00  0.00     0.004 C 
BRANCH  10  11
HETATM   11  C   UNL     1      25.194  10.823 -17.333  1.00  0.00     0.027 C 
BRANCH  11  12
HETATM   12  C   UNL     1      24.251  11.749 -18.064  1.00  0.00    -0.031 C 
HETATM   13  C   UNL     1      24.487  12.382 -19.231  1.00  0.00    -0.031 C 
BRANCH  13  14
HETATM   14  C   UNL     1      25.749  12.318 -20.065  1.00  0.00     0.027 C 
BRANCH  14  15
HETATM   15  C   UNL     1      25.420  12.275 -21.568  1.00  0.00     0.004 C 
BRANCH  15  16
HETATM   16  C   UNL     1      24.917  10.906 -22.071  1.00  0.00     0.000 C 
BRANCH  16  17
HETATM   17  C   UNL     1      24.229  10.980 -23.444  1.00  0.00     0.000 C 
BRANCH  17  18
HETATM   18  C   UNL     1      24.833  12.098 -24.306  1.00  0.00     0.000 C 
BRANCH  18  19
HETATM   19  C   UNL     1      26.003  11.573 -25.146  1.00  0.00    -0.000 C 
BRANCH  19  20
HETATM   20  C   UNL     1      27.324  12.224 -24.720  1.00  0.00    -0.005 C 
HETATM   21  C   UNL     1      28.202  11.239 -23.956  1.00  0.00     0.005 C 
ENDBRANCH  19  20
ENDBRANCH  18  19
ENDBRANCH  17  18
ENDBRANCH  16  17
ENDBRANCH  15  16
ENDBRANCH  14  15
ENDBRANCH  13  14
ENDBRANCH  11  12
ENDBRANCH  10  11
ENDBRANCH   9  10
ENDBRANCH   8   9
ENDBRANCH   7   8
ENDBRANCH   6   7
ENDBRANCH   5   6
ENDBRANCH   3   5
ENDBRANCH   1   3
TORSDOF 16
ENDMDL
MODEL 3
REMARK VINA RESULT:      -5.4     18.827     19.596
REMARK  16 active torsions:
REMARK  status: ('A' for Active; 'I' for Inactive)
REMARK    1  A    between atoms: O_1  and  C_20 
REMARK    2  A    between atoms: C_3  and  C_4 
REMARK    3  A    between atoms: C_3  and  C_5 
REMARK    4  A    between atoms: C_4  and  C_8 
REMARK    5  A    between atoms: C_5  and  C_11 
REMARK    6  A    between atoms: C_6  and  C_7 
REMARK    7  A    between atoms: C_6  and  C_9 
REMARK    8  A    between atoms: C_7  and  C_10 
REMARK    9  A    between atoms: C_8  and  C_12 
REMARK   10  A    between atoms: C_9  and  C_13 
REMARK   11  A    between atoms: C_10  and  C_14 
REMARK   12  A    between atoms: C_11  and  C_15 
REMARK   13  A    between atoms: C_12  and  C_16 
REMARK   14  A    between atoms: C_13  and  C_17 
REMARK   15  A    between atoms: C_14  and  C_18 
REMARK   16  A    between atoms: C_18  and  C_20 
ROOT
HETATM    1  O   UNL     1      11.229  -1.955  -9.585  1.00  0.00    -0.776 OA
HETATM    2  H   UNL     1      10.748  -2.778  -9.418  1.00  0.00     0.167 HD
ENDROOT
BRANCH   1   3
HETATM    3  C   UNL     1      11.887  -1.746 -10.745  1.00  0.00     0.139 C 
HETATM    4  O   UNL     1      13.099  -1.906 -10.793  1.00  0.00    -0.650 OA
BRANCH   3   5
HETATM    5  C   UNL     1      11.108  -1.317 -11.960  1.00  0.00     0.110 C 
BRANCH   5   6
HETATM    6  C   UNL     1      11.225  -2.304 -13.130  1.00  0.00     0.010 C 
BRANCH   6   7
HETATM    7  C   UNL     1      12.033  -1.696 -14.284  1.00  0.00     0.001 C 
BRANCH   7   8
HETATM    8  C   UNL     1      11.189  -1.616 -15.560  1.00  0.00     0.000 C 
BRANCH   8   9
HETATM    9  C   UNL     1      12.076  -1.645 -16.811  1.00  0.00     0.000 C 
BRANCH   9  10
HETATM   10  C   UNL     1      11.494  -2.589 -17.868  1.00  0.00     0.004 C 
BRANCH  10  11
HETATM   11  C   UNL     1      11.045  -1.823 -19.115  1.00  0.00     0.027 C 
BRANCH  11  12
HETATM   12  C   UNL     1      12.188  -1.753 -20.099  1.00  0.00    -0.031 C 
HETATM   13  C   UNL     1      12.096  -1.771 -21.444  1.00  0.00    -0.031 C 
BRANCH  13  14
HETATM   14  C   UNL     1      10.831  -1.873 -22.271  1.00  0.00     0.027 C 
BRANCH  14  15
HETATM   15  C   UNL     1      11.133  -2.395 -23.687  1.00  0.00     0.004 C 
BRANCH  15  16
HETATM   16  C   UNL     1      11.637  -1.318 -24.669  1.00  0.00     0.000 C 
BRANCH  16  17
HETATM   17  C   UNL     1      12.549  -1.881 -25.771  1.00  0.00     0.000 C 
BRANCH  17  18
HETATM   18  C   UNL     1      12.155  -1.334 -27.149  1.00  0.00     0.000 C 
BRANCH  18  19
HETATM   19  C   UNL     1      10.793  -0.631 -27.092  1.00  0.00    -0.000 C 
BRANCH  19  20
HETATM   20  C   UNL     1      10.951   0.889 -27.209  1.00  0.00    -0.005 C 
HETATM   21  C   UNL     1       9.641   1.605 -26.895  1.00  0.00     0.005 C 
ENDBRANCH  19  20
ENDBRANCH  18  19
ENDBRANCH  17  18
ENDBRANCH  16  17
ENDBRANCH  15  16
ENDBRANCH  14  15
ENDBRANCH  13  14
ENDBRANCH  11  12
ENDBRANCH  10  11
ENDBRANCH   9  10
ENDBRANCH   8   9
ENDBRANCH   7   8
ENDBRANCH   6   7
ENDBRANCH   5   6
ENDBRANCH   3   5
ENDBRANCH   1   3
TORSDOF 16
ENDMDL
MODEL 4
REMARK VINA RESULT:      -5.3      4.745     11.799
REMARK  16 active torsions:
REMARK  status: ('A' for Active; 'I' for Inactive)
REMARK    1  A    between atoms: O_1  and  C_20 
REMARK    2  A    between atoms: C_3  and  C_4 
REMARK    3  A    between atoms: C_3  and  C_5 
REMARK    4  A    between atoms: C_4  and  C_8 
REMARK    5  A    between atoms: C_5  and  C_11 
REMARK    6  A    between atoms: C_6  and  C_7 
REMARK    7  A    between atoms: C_6  and  C_9 
REMARK    8  A    between atoms: C_7  and  C_10 
REMARK    9  A    between atoms: C_8  and  C_12 
REMARK   10  A    between atoms: C_9  and  C_13 
REMARK   11  A    between atoms: C_10  and  C_14 
REMARK   12  A    between atoms: C_11  and  C_15 
REMARK   13  A    between atoms: C_12  and  C_16 
REMARK   14  A    between atoms: C_13  and  C_17 
REMARK   15  A    between atoms: C_14  and  C_18 
REMARK   16  A    between atoms: C_18  and  C_20 
ROOT
HETATM    1  O   UNL     1      28.435  11.098 -20.826  1.00  0.00    -0.776 OA
HETATM    2  H   UNL     1      28.904  10.362 -21.244  1.00  0.00     0.167 HD
ENDROOT
BRANCH   1   3
HETATM    3  C   UNL     1      27.100  11.248 -20.955  1.00  0.00     0.139 C 
HETATM    4  O   UNL     1      26.511  10.682 -21.866  1.00  0.00    -0.650 OA
BRANCH   3   5
HETATM    5  C   UNL     1      26.363  12.115 -19.968  1.00  0.00     0.110 C 
BRANCH   5   6
HETATM    6  C   UNL     1      24.839  12.066 -20.144  1.00  0.00     0.010 C 
BRANCH   6   7
HETATM    7  C   UNL     1      24.173  11.338 -18.969  1.00  0.00     0.001 C 
BRANCH   7   8
HETATM    8  C   UNL     1      24.142  12.228 -17.721  1.00  0.00     0.000 C 
BRANCH   8   9
HETATM    9  C   UNL     1      25.169  11.760 -16.684  1.00  0.00     0.000 C 
BRANCH   9  10
HETATM   10  C   UNL     1      24.625  11.940 -15.262  1.00  0.00     0.004 C 
BRANCH  10  11
HETATM   11  C   UNL     1      25.595  11.379 -14.219  1.00  0.00     0.027 C 
BRANCH  11  12
HETATM   12  C   UNL     1      25.946  12.461 -13.226  1.00  0.00    -0.031 C 
HETATM   13  C   UNL     1      25.505  12.565 -11.956  1.00  0.00    -0.031 C 
BRANCH  13  14
HETATM   14  C   UNL     1      24.556  11.627 -11.241  1.00  0.00     0.027 C 
BRANCH  14  15
HETATM   15  C   UNL     1      24.102  12.217  -9.894  1.00  0.00     0.004 C 
BRANCH  15  16
HETATM   16  C   UNL     1      24.399  11.322  -8.674  1.00  0.00     0.000 C 
BRANCH  16  17
HETATM   17  C   UNL     1      24.495  12.106  -7.355  1.00  0.00     0.000 C 
BRANCH  17  18
HETATM   18  C   UNL     1      25.186  11.274  -6.266  1.00  0.00     0.000 C 
BRANCH  18  19
HETATM   19  C   UNL     1      25.371  12.093  -4.983  1.00  0.00    -0.000 C 
BRANCH  19  20
HETATM   20  C   UNL     1      24.055  12.200  -4.203  1.00  0.00    -0.005 C 
HETATM   21  C   UNL     1      23.826  10.964  -3.339  1.00  0.00     0.005 C 
ENDBRANCH  19  20
ENDBRANCH  18  19
ENDBRANCH  17  18
ENDBRANCH  16  17
ENDBRANCH  15  16
ENDBRANCH  14  15
ENDBRANCH  13  14
ENDBRANCH  11  12
ENDBRANCH  10  11
ENDBRANCH   9  10
ENDBRANCH   8   9
ENDBRANCH   7   8
ENDBRANCH   6   7
ENDBRANCH   5   6
ENDBRANCH   3   5
ENDBRANCH   1   3
TORSDOF 16
ENDMDL
MODEL 5
REMARK VINA RESULT:      -5.3      4.052      8.888
REMARK  16 active torsions:
REMARK  status: ('A' for Active; 'I' for Inactive)
REMARK    1  A    between atoms: O_1  and  C_20 
REMARK    2  A    between atoms: C_3  and  C_4 
REMARK    3  A    between atoms: C_3  and  C_5 
REMARK    4  A    between atoms: C_4  and  C_8 
REMARK    5  A    between atoms: C_5  and  C_11 
REMARK    6  A    between atoms: C_6  and  C_7 
REMARK    7  A    between atoms: C_6  and  C_9 
REMARK    8  A    between atoms: C_7  and  C_10 
REMARK    9  A    between atoms: C_8  and  C_12 
REMARK   10  A    between atoms: C_9  and  C_13 
REMARK   11  A    between atoms: C_10  and  C_14 
REMARK   12  A    between atoms: C_11  and  C_15 
REMARK   13  A    between atoms: C_12  and  C_16 
REMARK   14  A    between atoms: C_13  and  C_17 
REMARK   15  A    between atoms: C_14  and  C_18 
REMARK   16  A    between atoms: C_18  and  C_20 
ROOT
HETATM    1  O   UNL     1      28.967  15.641 -13.149  1.00  0.00    -0.776 OA
HETATM    2  H   UNL     1      29.711  16.161 -12.814  1.00  0.00     0.167 HD
ENDROOT
BRANCH   1   3
HETATM    3  C   UNL     1      28.977  14.292 -13.114  1.00  0.00     0.139 C 
HETATM    4  O   UNL     1      29.780  13.709 -12.398  1.00  0.00    -0.650 OA
BRANCH   3   5
HETATM    5  C   UNL     1      27.994  13.531 -13.964  1.00  0.00     0.110 C 
BRANCH   5   6
HETATM    6  C   UNL     1      28.513  12.154 -14.401  1.00  0.00     0.010 C 
BRANCH   6   7
HETATM    7  C   UNL     1      27.352  11.215 -14.752  1.00  0.00     0.001 C 
BRANCH   7   8
HETATM    8  C   UNL     1      26.781  11.544 -16.135  1.00  0.00     0.000 C 
BRANCH   8   9
HETATM    9  C   UNL     1      25.306  11.141 -16.234  1.00  0.00     0.000 C 
BRANCH   9  10
HETATM   10  C   UNL     1      24.415  12.158 -15.513  1.00  0.00     0.004 C 
BRANCH  10  11
HETATM   11  C   UNL     1      23.776  11.553 -14.260  1.00  0.00     0.027 C 
BRANCH  11  12
HETATM   12  C   UNL     1      24.085  12.425 -13.067  1.00  0.00    -0.031 C 
HETATM   13  C   UNL     1      24.876  12.110 -12.021  1.00  0.00    -0.031 C 
BRANCH  13  14
HETATM   14  C   UNL     1      25.624  10.813 -11.801  1.00  0.00     0.027 C 
BRANCH  14  15
HETATM   15  C   UNL     1      26.782  11.000 -10.805  1.00  0.00     0.004 C 
BRANCH  15  16
HETATM   16  C   UNL     1      27.170  12.471 -10.550  1.00  0.00     0.000 C 
BRANCH  16  17
HETATM   17  C   UNL     1      27.812  12.698  -9.172  1.00  0.00     0.000 C 
BRANCH  17  18
HETATM   18  C   UNL     1      26.744  12.922  -8.094  1.00  0.00     0.000 C 
BRANCH  18  19
HETATM   19  C   UNL     1      26.455  11.626  -7.329  1.00  0.00    -0.000 C 
BRANCH  19  20
HETATM   20  C   UNL     1      25.012  11.159  -7.558  1.00  0.00    -0.005 C 
HETATM   21  C   UNL     1      24.213  12.203  -8.331  1.00  0.00     0.005 C 
ENDBRANCH  19  20
ENDBRANCH  18  19
ENDBRANCH  17  18
ENDBRANCH  16  17
ENDBRANCH  15  16
ENDBRANCH  14  15
ENDBRANCH  13  14
ENDBRANCH  11  12
ENDBRANCH  10  11
ENDBRANCH   9  10
ENDBRANCH   8   9
ENDBRANCH   7   8
ENDBRANCH   6   7
ENDBRANCH   5   6
ENDBRANCH   3   5
ENDBRANCH   1   3
TORSDOF 16
ENDMDL
MODEL 6
REMARK VINA RESULT:      -5.2      3.272      5.730
REMARK  16 active torsions:
REMARK  status: ('A' for Active; 'I' for Inactive)
REMARK    1  A    between atoms: O_1  and  C_20 
REMARK    2  A    between atoms: C_3  and  C_4 
REMARK    3  A    between atoms: C_3  and  C_5 
REMARK    4  A    between atoms: C_4  and  C_8 
REMARK    5  A    between atoms: C_5  and  C_11 
REMARK    6  A    between atoms: C_6  and  C_7 
REMARK    7  A    between atoms: C_6  and  C_9 
REMARK    8  A    between atoms: C_7  and  C_10 
REMARK    9  A    between atoms: C_8  and  C_12 
REMARK   10  A    between atoms: C_9  and  C_13 
REMARK   11  A    between atoms: C_10  and  C_14 
REMARK   12  A    between atoms: C_11  and  C_15 
REMARK   13  A    between atoms: C_12  and  C_16 
REMARK   14  A    between atoms: C_13  and  C_17 
REMARK   15  A    between atoms: C_14  and  C_18 
REMARK   16  A    between atoms: C_18  and  C_20 
ROOT
HETATM    1  O   UNL     1      26.325  13.475  -7.597  1.00  0.00    -0.776 OA
HETATM    2  H   UNL     1      26.310  13.945  -8.443  1.00  0.00     0.167 HD
ENDROOT
BRANCH   1   3
HETATM    3  C   UNL     1      26.114  12.143  -7.527  1.00  0.00     0.139 C 
HETATM    4  O   UNL     1      27.059  11.373  -7.634  1.00  0.00    -0.650 OA
BRANCH   3   5
HETATM    5  C   UNL     1      24.713  11.635  -7.316  1.00  0.00     0.110 C 
BRANCH   5   6
HETATM    6  C   UNL     1      23.910  11.520  -8.620  1.00  0.00     0.010 C 
BRANCH   6   7
HETATM    7  C   UNL     1      24.835  11.590  -9.842  1.00  0.00     0.001 C 
BRANCH   7   8
HETATM    8  C   UNL     1      24.185  12.394 -10.973  1.00  0.00     0.000 C 
BRANCH   8   9
HETATM    9  C   UNL     1      25.062  12.383 -12.231  1.00  0.00     0.000 C 
BRANCH   9  10
HETATM   10  C   UNL     1      25.013  11.013 -12.915  1.00  0.00     0.004 C 
BRANCH  10  11
HETATM   11  C   UNL     1      23.906  10.955 -13.971  1.00  0.00     0.027 C 
BRANCH  11  12
HETATM   12  C   UNL     1      23.992  12.176 -14.856  1.00  0.00    -0.031 C 
HETATM   13  C   UNL     1      24.602  12.261 -16.055  1.00  0.00    -0.031 C 
BRANCH  13  14
HETATM   14  C   UNL     1      25.345  11.159 -16.781  1.00  0.00     0.027 C 
BRANCH  14  15
HETATM   15  C   UNL     1      26.842  11.170 -16.426  1.00  0.00     0.004 C 
BRANCH  15  16
HETATM   16  C   UNL     1      27.382  12.546 -15.985  1.00  0.00     0.000 C 
BRANCH  16  17
HETATM   17  C   UNL     1      28.013  12.529 -14.584  1.00  0.00     0.000 C 
BRANCH  17  18
HETATM   18  C   UNL     1      28.019  13.932 -13.963  1.00  0.00     0.000 C 
BRANCH  18  19
HETATM   19  C   UNL     1      28.509  13.889 -12.510  1.00  0.00    -0.000 C 
BRANCH  19  20
HETATM   20  C   UNL     1      28.965  12.477 -12.124  1.00  0.00    -0.005 C 
HETATM   21  C   UNL     1      28.437  12.085 -10.747  1.00  0.00     0.005 C 
ENDBRANCH  19  20
ENDBRANCH  18  19
ENDBRANCH  17  18
ENDBRANCH  16  17
ENDBRANCH  15  16
ENDBRANCH  14  15
ENDBRANCH  13  14
ENDBRANCH  11  12
ENDBRANCH  10  11
ENDBRANCH   9  10
ENDBRANCH   8   9
ENDBRANCH   7   8
ENDBRANCH   6   7
ENDBRANCH   5   6
ENDBRANCH   3   5
ENDBRANCH   1   3
TORSDOF 16
ENDMDL
MODEL 7
REMARK VINA RESULT:      -5.2      4.661     11.079
REMARK  16 active torsions:
REMARK  status: ('A' for Active; 'I' for Inactive)
REMARK    1  A    between atoms: O_1  and  C_20 
REMARK    2  A    between atoms: C_3  and  C_4 
REMARK    3  A    between atoms: C_3  and  C_5 
REMARK    4  A    between atoms: C_4  and  C_8 
REMARK    5  A    between atoms: C_5  and  C_11 
REMARK    6  A    between atoms: C_6  and  C_7 
REMARK    7  A    between atoms: C_6  and  C_9 
REMARK    8  A    between atoms: C_7  and  C_10 
REMARK    9  A    between atoms: C_8  and  C_12 
REMARK   10  A    between atoms: C_9  and  C_13 
REMARK   11  A    between atoms: C_10  and  C_14 
REMARK   12  A    between atoms: C_11  and  C_15 
REMARK   13  A    between atoms: C_12  and  C_16 
REMARK   14  A    between atoms: C_13  and  C_17 
REMARK   15  A    between atoms: C_14  and  C_18 
REMARK   16  A    between atoms: C_18  and  C_20 
ROOT
HETATM    1  O   UNL     1      26.843  10.808 -21.518  1.00  0.00    -0.776 OA
HETATM    2  H   UNL     1      27.179  10.391 -20.712  1.00  0.00     0.167 HD
ENDROOT
BRANCH   1   3
HETATM    3  C   UNL     1      26.039  11.891 -21.469  1.00  0.00     0.139 C 
HETATM    4  O   UNL     1      26.521  13.011 -21.578  1.00  0.00    -0.650 OA
BRANCH   3   5
HETATM    5  C   UNL     1      24.558  11.695 -21.279  1.00  0.00     0.110 C 
BRANCH   5   6
HETATM    6  C   UNL     1      24.039  12.262 -19.951  1.00  0.00     0.010 C 
BRANCH   6   7
HETATM    7  C   UNL     1      24.239  11.257 -18.809  1.00  0.00     0.001 C 
BRANCH   7   8
HETATM    8  C   UNL     1      24.631  11.974 -17.512  1.00  0.00     0.000 C 
BRANCH   8   9
HETATM    9  C   UNL     1      25.582  11.113 -16.672  1.00  0.00     0.000 C 
BRANCH   9  10
HETATM   10  C   UNL     1      26.133  11.911 -15.486  1.00  0.00     0.004 C 
BRANCH  10  11
HETATM   11  C   UNL     1      25.005  12.541 -14.664  1.00  0.00     0.027 C 
BRANCH  11  12
HETATM   12  C   UNL     1      24.237  11.453 -13.951  1.00  0.00    -0.031 C 
HETATM   13  C   UNL     1      24.378  11.078 -12.664  1.00  0.00    -0.031 C 
BRANCH  13  14
HETATM   14  C   UNL     1      25.341  11.652 -11.646  1.00  0.00     0.027 C 
BRANCH  14  15
HETATM   15  C   UNL     1      25.163  10.982 -10.272  1.00  0.00     0.004 C 
BRANCH  15  16
HETATM   16  C   UNL     1      24.216  11.733  -9.315  1.00  0.00     0.000 C 
BRANCH  16  17
HETATM   17  C   UNL     1      24.956  12.495  -8.203  1.00  0.00     0.000 C 
BRANCH  17  18
HETATM   18  C   UNL     1      25.058  11.649  -6.927  1.00  0.00     0.000 C 
BRANCH  18  19
HETATM   19  C   UNL     1      26.519  11.479  -6.496  1.00  0.00    -0.000 C 
BRANCH  19  20
HETATM   20  C   UNL     1      27.475  12.064  -7.542  1.00  0.00    -0.005 C 
HETATM   21  C   UNL     1      28.443  13.058  -6.909  1.00  0.00     0.005 C 
ENDBRANCH  19  20
ENDBRANCH  18  19
ENDBRANCH  17  18
ENDBRANCH  16  17
ENDBRANCH  15  16
ENDBRANCH  14  15
ENDBRANCH  13  14
ENDBRANCH  11  12
ENDBRANCH  10  11
ENDBRANCH   9  10
ENDBRANCH   8   9
ENDBRANCH   7   8
ENDBRANCH   6   7
ENDBRANCH   5   6
ENDBRANCH   3   5
ENDBRANCH   1   3
TORSDOF 16
ENDMDL
MODEL 8
REMARK VINA RESULT:      -5.1     18.820     19.622
REMARK  16 active torsions:
REMARK  status: ('A' for Active; 'I' for Inactive)
REMARK    1  A    between atoms: O_1  and  C_20 
REMARK    2  A    between atoms: C_3  and  C_4 
REMARK    3  A    between atoms: C_3  and  C_5 
REMARK    4  A    between atoms: C_4  and  C_8 
REMARK    5  A    between atoms: C_5  and  C_11 
REMARK    6  A    between atoms: C_6  and  C_7 
REMARK    7  A    between atoms: C_6  and  C_9 
REMARK    8  A    between atoms: C_7  and  C_10 
REMARK    9  A    between atoms: C_8  and  C_12 
REMARK   10  A    between atoms: C_9  and  C_13 
REMARK   11  A    between atoms: C_10  and  C_14 
REMARK   12  A    between atoms: C_11  and  C_15 
REMARK   13  A    between atoms: C_12  and  C_16 
REMARK   14  A    between atoms: C_13  and  C_17 
REMARK   15  A    between atoms: C_14  and  C_18 
REMARK   16  A    between atoms: C_18  and  C_20 
ROOT
HETATM    1  O   UNL     1      11.720  -1.891  -9.404  1.00  0.00    -0.776 OA
HETATM    2  H   UNL     1      11.266  -2.696  -9.116  1.00  0.00     0.167 HD
ENDROOT
BRANCH   1   3
HETATM    3  C   UNL     1      12.144  -1.737 -10.676  1.00  0.00     0.139 C 
HETATM    4  O   UNL     1      13.303  -2.001 -10.966  1.00  0.00    -0.650 OA
BRANCH   3   5
HETATM    5  C   UNL     1      11.173  -1.242 -11.716  1.00  0.00     0.110 C 
BRANCH   5   6
HETATM    6  C   UNL     1      10.382  -2.373 -12.389  1.00  0.00     0.010 C 
BRANCH   6   7
HETATM    7  C   UNL     1      10.963  -2.703 -13.769  1.00  0.00     0.001 C 
BRANCH   7   8
HETATM    8  C   UNL     1      11.903  -1.592 -14.248  1.00  0.00     0.000 C 
BRANCH   8   9
HETATM    9  C   UNL     1      12.061  -1.621 -15.772  1.00  0.00     0.000 C 
BRANCH   9  10
HETATM   10  C   UNL     1      10.698  -1.772 -16.457  1.00  0.00     0.004 C 
BRANCH  10  11
HETATM   11  C   UNL     1      10.759  -1.340 -17.924  1.00  0.00     0.027 C 
BRANCH  11  12
HETATM   12  C   UNL     1      11.958  -1.976 -18.585  1.00  0.00    -0.031 C 
HETATM   13  C   UNL     1      12.240  -1.987 -19.904  1.00  0.00    -0.031 C 
BRANCH  13  14
HETATM   14  C   UNL     1      11.418  -1.375 -21.018  1.00  0.00     0.027 C 
BRANCH  14  15
HETATM   15  C   UNL     1      10.566  -2.440 -21.731  1.00  0.00     0.004 C 
BRANCH  15  16
HETATM   16  C   UNL     1      11.018  -2.757 -23.171  1.00  0.00     0.000 C 
BRANCH  16  17
HETATM   17  C   UNL     1      11.687  -1.564 -23.873  1.00  0.00     0.000 C 
BRANCH  17  18
HETATM   18  C   UNL     1      11.592  -1.696 -25.399  1.00  0.00     0.000 C 
BRANCH  18  19
HETATM   19  C   UNL     1      12.986  -1.727 -26.036  1.00  0.00    -0.000 C 
BRANCH  19  20
HETATM   20  C   UNL     1      12.914  -2.179 -27.500  1.00  0.00    -0.005 C 
HETATM   21  C   UNL     1      12.861  -3.700 -27.604  1.00  0.00     0.005 C 
ENDBRANCH  19  20
ENDBRANCH  18  19
ENDBRANCH  17  18
ENDBRANCH  16  17
ENDBRANCH  15  16
ENDBRANCH  14  15
ENDBRANCH  13  14
ENDBRANCH  11  12
ENDBRANCH  10  11
ENDBRANCH   9  10
ENDBRANCH   8   9
ENDBRANCH   7   8
ENDBRANCH   6   7
ENDBRANCH   5   6
ENDBRANCH   3   5
ENDBRANCH   1   3
TORSDOF 16
ENDMDL
MODEL 9
REMARK VINA RESULT:      -5.1      2.757      5.770
REMARK  16 active torsions:
REMARK  status: ('A' for Active; 'I' for Inactive)
REMARK    1  A    between atoms: O_1  and  C_20 
REMARK    2  A    between atoms: C_3  and  C_4 
REMARK    3  A    between atoms: C_3  and  C_5 
REMARK    4  A    between atoms: C_4  and  C_8 
REMARK    5  A    between atoms: C_5  and  C_11 
REMARK    6  A    between atoms: C_6  and  C_7 
REMARK    7  A    between atoms: C_6  and  C_9 
REMARK    8  A    between atoms: C_7  and  C_10 
REMARK    9  A    between atoms: C_8  and  C_12 
REMARK   10  A    between atoms: C_9  and  C_13 
REMARK   11  A    between atoms: C_10  and  C_14 
REMARK   12  A    between atoms: C_11  and  C_15 
REMARK   13  A    between atoms: C_12  and  C_16 
REMARK   14  A    between atoms: C_13  and  C_17 
REMARK   15  A    between atoms: C_14  and  C_18 
REMARK   16  A    between atoms: C_18  and  C_20 
ROOT
HETATM    1  O   UNL     1      24.300  12.401 -11.107  1.00  0.00    -0.776 OA
HETATM    2  H   UNL     1      23.695  11.657 -10.975  1.00  0.00     0.167 HD
ENDROOT
BRANCH   1   3
HETATM    3  C   UNL     1      25.300  12.344 -12.011  1.00  0.00     0.139 C 
HETATM    4  O   UNL     1      26.291  13.048 -11.865  1.00  0.00    -0.650 OA
BRANCH   3   5
HETATM    5  C   UNL     1      25.172  11.411 -13.186  1.00  0.00     0.110 C 
BRANCH   5   6
HETATM    6  C   UNL     1      23.823  11.531 -13.907  1.00  0.00     0.010 C 
BRANCH   6   7
HETATM    7  C   UNL     1      23.986  12.223 -15.266  1.00  0.00     0.001 C 
BRANCH   7   8
HETATM    8  C   UNL     1      25.399  12.013 -15.821  1.00  0.00     0.000 C 
BRANCH   8   9
HETATM    9  C   UNL     1      25.417  10.905 -16.881  1.00  0.00     0.000 C 
BRANCH   9  10
HETATM   10  C   UNL     1      24.395  11.194 -17.985  1.00  0.00     0.004 C 
BRANCH  10  11
HETATM   11  C   UNL     1      24.744  12.475 -18.748  1.00  0.00     0.027 C 
BRANCH  11  12
HETATM   12  C   UNL     1      25.800  12.170 -19.784  1.00  0.00    -0.031 C 
HETATM   13  C   UNL     1      27.066  12.634 -19.805  1.00  0.00    -0.031 C 
BRANCH  13  14
HETATM   14  C   UNL     1      27.712  13.568 -18.805  1.00  0.00     0.027 C 
BRANCH  14  15
HETATM   15  C   UNL     1      28.915  12.900 -18.116  1.00  0.00     0.004 C 
BRANCH  15  16
HETATM   16  C   UNL     1      28.843  11.360 -18.064  1.00  0.00     0.000 C 
BRANCH  16  17
HETATM   17  C   UNL     1      30.150  10.708 -17.582  1.00  0.00     0.000 C 
BRANCH  17  18
HETATM   18  C   UNL     1      30.233  10.703 -16.050  1.00  0.00     0.000 C 
BRANCH  18  19
HETATM   19  C   UNL     1      28.841  10.558 -15.424  1.00  0.00    -0.000 C 
BRANCH  19  20
HETATM   20  C   UNL     1      28.756  11.303 -14.087  1.00  0.00    -0.005 C 
HETATM   21  C   UNL     1      28.686  12.812 -14.301  1.00  0.00     0.005 C 
ENDBRANCH  19  20
ENDBRANCH  18  19
ENDBRANCH  17  18
ENDBRANCH  16  17
ENDBRANCH  15  16
ENDBRANCH  14  15
ENDBRANCH  13  14
ENDBRANCH  11  12
ENDBRANCH  10  11
ENDBRANCH   9  10
ENDBRANCH   8   9
ENDBRANCH   7   8
ENDBRANCH   6   7
ENDBRANCH   5   6
ENDBRANCH   3   5
ENDBRANCH   1   3
TORSDOF 16
ENDMDL
MODEL 10
REMARK VINA RESULT:      -5.1      3.451      6.658
REMARK  16 active torsions:
REMARK  status: ('A' for Active; 'I' for Inactive)
REMARK    1  A    between atoms: O_1  and  C_20 
REMARK    2  A    between atoms: C_3  and  C_4 
REMARK    3  A    between atoms: C_3  and  C_5 
REMARK    4  A    between atoms: C_4  and  C_8 
REMARK    5  A    between atoms: C_5  and  C_11 
REMARK    6  A    between atoms: C_6  and  C_7 
REMARK    7  A    between atoms: C_6  and  C_9 
REMARK    8  A    between atoms: C_7  and  C_10 
REMARK    9  A    between atoms: C_8  and  C_12 
REMARK   10  A    between atoms: C_9  and  C_13 
REMARK   11  A    between atoms: C_10  and  C_14 
REMARK   12  A    between atoms: C_11  and  C_15 
REMARK   13  A    between atoms: C_12  and  C_16 
REMARK   14  A    between atoms: C_13  and  C_17 
REMARK   15  A    between atoms: C_14  and  C_18 
REMARK   16  A    between atoms: C_18  and  C_20 
ROOT
HETATM    1  O   UNL     1      25.550  10.768  -7.498  1.00  0.00    -0.776 OA
HETATM    2  H   UNL     1      25.468  10.228  -6.699  1.00  0.00     0.167 HD
ENDROOT
BRANCH   1   3
HETATM    3  C   UNL     1      24.649  11.727  -7.796  1.00  0.00     0.139 C 
HETATM    4  O   UNL     1      24.396  12.599  -6.975  1.00  0.00    -0.650 OA
BRANCH   3   5
HETATM    5  C   UNL     1      23.972  11.702  -9.141  1.00  0.00     0.110 C 
BRANCH   5   6
HETATM    6  C   UNL     1      24.960  11.597 -10.312  1.00  0.00     0.010 C 
BRANCH   6   7
HETATM    7  C   UNL     1      24.392  12.263 -11.571  1.00  0.00     0.001 C 
BRANCH   7   8
HETATM    8  C   UNL     1      24.751  11.457 -12.825  1.00  0.00     0.000 C 
BRANCH   8   9
HETATM    9  C   UNL     1      24.224  12.143 -14.091  1.00  0.00     0.000 C 
BRANCH   9  10
HETATM   10  C   UNL     1      24.570  11.321 -15.337  1.00  0.00     0.004 C 
BRANCH  10  11
HETATM   11  C   UNL     1      25.254  12.183 -16.402  1.00  0.00     0.027 C 
BRANCH  11  12
HETATM   12  C   UNL     1      26.679  11.717 -16.585  1.00  0.00    -0.031 C 
HETATM   13  C   UNL     1      27.791  12.475 -16.502  1.00  0.00    -0.031 C 
BRANCH  13  14
HETATM   14  C   UNL     1      27.865  13.960 -16.216  1.00  0.00     0.027 C 
BRANCH  14  15
HETATM   15  C   UNL     1      28.437  14.229 -14.813  1.00  0.00     0.004 C 
BRANCH  15  16
HETATM   16  C   UNL     1      27.585  13.664 -13.659  1.00  0.00     0.000 C 
BRANCH  16  17
HETATM   17  C   UNL     1      28.188  13.934 -12.271  1.00  0.00     0.000 C 
BRANCH  17  18
HETATM   18  C   UNL     1      29.060  12.759 -11.809  1.00  0.00     0.000 C 
BRANCH  18  19
HETATM   19  C   UNL     1      28.261  11.450 -11.805  1.00  0.00    -0.000 C 
BRANCH  19  20
HETATM   20  C   UNL     1      28.659  10.564 -10.619  1.00  0.00    -0.005 C 
HETATM   21  C   UNL     1      28.553  11.326  -9.302  1.00  0.00     0.005 C 
ENDBRANCH  19  20
ENDBRANCH  18  19
ENDBRANCH  17  18
ENDBRANCH  16  17
ENDBRANCH  15  16
ENDBRANCH  14  15
ENDBRANCH  13  14
ENDBRANCH  11  12
ENDBRANCH  10  11
ENDBRANCH   9  10
ENDBRANCH   8   9
ENDBRANCH   7   8
ENDBRANCH   6   7
ENDBRANCH   5   6
ENDBRANCH   3   5
ENDBRANCH   1   3
TORSDOF 16
ENDMDL
MODEL 11
REMARK VINA RESULT:      -5.0      2.520      5.050
REMARK  16 active torsions:
REMARK  status: ('A' for Active; 'I' for Inactive)
REMARK    1  A    between atoms: O_1  and  C_20 
REMARK    2  A    between atoms: C_3  and  C_4 
REMARK    3  A    between atoms: C_3  and  C_5 
REMARK    4  A    between atoms: C_4  and  C_8 
REMARK    5  A    between atoms: C_5  and  C_11 
REMARK    6  A    between atoms: C_6  and  C_7 
REMARK    7  A    between atoms: C_6  and  C_9 
REMARK    8  A    between atoms: C_7  and  C_10 
REMARK    9  A    between atoms: C_8  and  C_12 
REMARK   10  A    between atoms: C_9  and  C_13 
REMARK   11  A    between atoms: C_10  and  C_14 
REMARK   12  A    between atoms: C_11  and  C_15 
REMARK   13  A    between atoms: C_12  and  C_16 
REMARK   14  A    between atoms: C_13  and  C_17 
REMARK   15  A    between atoms: C_14  and  C_18 
REMARK   16  A    between atoms: C_18  and  C_20 
ROOT
HETATM    1  O   UNL     1      28.693  11.152 -10.686  1.00  0.00    -0.776 OA
HETATM    2  H   UNL     1      28.559  10.948 -11.623  1.00  0.00     0.167 HD
ENDROOT
BRANCH   1   3
HETATM    3  C   UNL     1      27.667  11.527  -9.893  1.00  0.00     0.139 C 
HETATM    4  O   UNL     1      27.561  11.049  -8.772  1.00  0.00    -0.650 OA
BRANCH   3   5
HETATM    5  C   UNL     1      26.672  12.532 -10.411  1.00  0.00     0.110 C 
BRANCH   5   6
HETATM    6  C   UNL     1      25.249  11.967 -10.526  1.00  0.00     0.010 C 
BRANCH   6   7
HETATM    7  C   UNL     1      25.045  11.259 -11.871  1.00  0.00     0.001 C 
BRANCH   7   8
HETATM    8  C   UNL     1      24.353  12.185 -12.877  1.00  0.00     0.000 C 
BRANCH   8   9
HETATM    9  C   UNL     1      23.960  11.424 -14.148  1.00  0.00     0.000 C 
BRANCH   9  10
HETATM   10  C   UNL     1      24.383  12.201 -15.399  1.00  0.00     0.004 C 
BRANCH  10  11
HETATM   11  C   UNL     1      24.891  11.260 -16.495  1.00  0.00     0.027 C 
BRANCH  11  12
HETATM   12  C   UNL     1      24.522  11.821 -17.848  1.00  0.00    -0.031 C 
HETATM   13  C   UNL     1      25.370  12.142 -18.846  1.00  0.00    -0.031 C 
BRANCH  13  14
HETATM   14  C   UNL     1      26.879  12.024 -18.835  1.00  0.00     0.027 C 
BRANCH  14  15
HETATM   15  C   UNL     1      27.546  13.410 -18.871  1.00  0.00     0.004 C 
BRANCH  15  16
HETATM   16  C   UNL     1      28.334  13.771 -17.595  1.00  0.00     0.000 C 
BRANCH  16  17
HETATM   17  C   UNL     1      27.520  13.574 -16.305  1.00  0.00     0.000 C 
BRANCH  17  18
HETATM   18  C   UNL     1      28.366  13.889 -15.064  1.00  0.00     0.000 C 
BRANCH  18  19
HETATM   19  C   UNL     1      27.879  13.089 -13.850  1.00  0.00    -0.000 C 
BRANCH  19  20
HETATM   20  C   UNL     1      27.868  11.585 -14.147  1.00  0.00    -0.005 C 
HETATM   21  C   UNL     1      29.286  11.027 -14.217  1.00  0.00     0.005 C 
ENDBRANCH  19  20
ENDBRANCH  18  19
ENDBRANCH  17  18
ENDBRANCH  16  17
ENDBRANCH  15  16
ENDBRANCH  14  15
ENDBRANCH  13  14
ENDBRANCH  11  12
ENDBRANCH  10  11
ENDBRANCH   9  10
ENDBRANCH   8   9
ENDBRANCH   7   8
ENDBRANCH   6   7
ENDBRANCH   5   6
ENDBRANCH   3   5
ENDBRANCH   1   3
TORSDOF 16
ENDMDL
MODEL 12
REMARK VINA RESULT:      -5.0      2.051      3.289
REMARK  16 active torsions:
REMARK  status: ('A' for Active; 'I' for Inactive)
REMARK    1  A    between atoms: O_1  and  C_20 
REMARK    2  A    between atoms: C_3  and  C_4 
REMARK    3  A    between atoms: C_3  and  C_5 
REMARK    4  A    between atoms: C_4  and  C_8 
REMARK    5  A    between atoms: C_5  and  C_11 
REMARK    6  A    between atoms: C_6  and  C_7 
REMARK    7  A    between atoms: C_6  and  C_9 
REMARK    8  A    between atoms: C_7  and  C_10 
REMARK    9  A    between atoms: C_8  and  C_12 
REMARK   10  A    between atoms: C_9  and  C_13 
REMARK   11  A    between atoms: C_10  and  C_14 
REMARK   12  A    between atoms: C_11  and  C_15 
REMARK   13  A    between atoms: C_12  and  C_16 
REMARK   14  A    between atoms: C_13  and  C_17 
REMARK   15  A    between atoms: C_14  and  C_18 
REMARK   16  A    between atoms: C_18  and  C_20 
ROOT
HETATM    1  O   UNL     1      27.565  13.756  -9.471  1.00  0.00    -0.776 OA
HETATM    2  H   UNL     1      28.095  14.382  -8.957  1.00  0.00     0.167 HD
ENDROOT
BRANCH   1   3
HETATM    3  C   UNL     1      27.945  12.470  -9.624  1.00  0.00     0.139 C 
HETATM    4  O   UNL     1      29.116  12.159  -9.456  1.00  0.00    -0.650 OA
BRANCH   3   5
HETATM    5  C   UNL     1      26.910  11.442 -10.000  1.00  0.00     0.110 C 
BRANCH   5   6
HETATM    6  C   UNL     1      25.502  11.792  -9.497  1.00  0.00     0.010 C 
BRANCH   6   7
HETATM    7  C   UNL     1      24.454  11.555 -10.592  1.00  0.00     0.001 C 
BRANCH   7   8
HETATM    8  C   UNL     1      24.900  12.175 -11.920  1.00  0.00     0.000 C 
BRANCH   8   9
HETATM    9  C   UNL     1      24.747  11.177 -13.074  1.00  0.00     0.000 C 
BRANCH   9  10
HETATM   10  C   UNL     1      24.160  11.864 -14.311  1.00  0.00     0.004 C 
BRANCH  10  11
HETATM   11  C   UNL     1      25.241  12.147 -15.358  1.00  0.00     0.027 C 
BRANCH  11  12
HETATM   12  C   UNL     1      25.247  11.039 -16.385  1.00  0.00    -0.031 C 
HETATM   13  C   UNL     1      24.852  11.129 -17.671  1.00  0.00    -0.031 C 
BRANCH  13  14
HETATM   14  C   UNL     1      24.306  12.354 -18.374  1.00  0.00     0.027 C 
BRANCH  14  15
HETATM   15  C   UNL     1      24.408  12.210 -19.902  1.00  0.00     0.004 C 
BRANCH  15  16
HETATM   16  C   UNL     1      25.371  11.101 -20.374  1.00  0.00     0.000 C 
BRANCH  16  17
HETATM   17  C   UNL     1      26.851  11.511 -20.299  1.00  0.00     0.000 C 
BRANCH  17  18
HETATM   18  C   UNL     1      27.035  12.988 -20.671  1.00  0.00     0.000 C 
BRANCH  18  19
HETATM   19  C   UNL     1      28.313  13.557 -20.044  1.00  0.00    -0.000 C 
BRANCH  19  20
HETATM   20  C   UNL     1      28.433  13.152 -18.571  1.00  0.00    -0.005 C 
HETATM   21  C   UNL     1      27.534  14.011 -17.688  1.00  0.00     0.005 C 
ENDBRANCH  19  20
ENDBRANCH  18  19
ENDBRANCH  17  18
ENDBRANCH  16  17
ENDBRANCH  15  16
ENDBRANCH  14  15
ENDBRANCH  13  14
ENDBRANCH  11  12
ENDBRANCH  10  11
ENDBRANCH   9  10
ENDBRANCH   8   9
ENDBRANCH   7   8
ENDBRANCH   6   7
ENDBRANCH   5   6
ENDBRANCH   3   5
ENDBRANCH   1   3
TORSDOF 16
ENDMDL
MODEL 13
REMARK VINA RESULT:      -5.0      6.216      8.711
REMARK  16 active torsions:
REMARK  status: ('A' for Active; 'I' for Inactive)
REMARK    1  A    between atoms: O_1  and  C_20 
REMARK    2  A    between atoms: C_3  and  C_4 
REMARK    3  A    between atoms: C_3  and  C_5 
REMARK    4  A    between atoms: C_4  and  C_8 
REMARK    5  A    between atoms: C_5  and  C_11 
REMARK    6  A    between atoms: C_6  and  C_7 
REMARK    7  A    between atoms: C_6  and  C_9 
REMARK    8  A    between atoms: C_7  and  C_10 
REMARK    9  A    between atoms: C_8  and  C_12 
REMARK   10  A    between atoms: C_9  and  C_13 
REMARK   11  A    between atoms: C_10  and  C_14 
REMARK   12  A    between atoms: C_11  and  C_15 
REMARK   13  A    between atoms: C_12  and  C_16 
REMARK   14  A    between atoms: C_13  and  C_17 
REMARK   15  A    between atoms: C_14  and  C_18 
REMARK   16  A    between atoms: C_18  and  C_20 
ROOT
HETATM    1  O   UNL     1      25.324  11.463 -24.964  1.00  0.00    -0.776 OA
HETATM    2  H   UNL     1      26.257  11.208 -24.919  1.00  0.00     0.167 HD
ENDROOT
BRANCH   1   3
HETATM    3  C   UNL     1      24.613  11.737 -23.850  1.00  0.00     0.139 C 
HETATM    4  O   UNL     1      23.395  11.837 -23.917  1.00  0.00    -0.650 OA
BRANCH   3   5
HETATM    5  C   UNL     1      25.340  11.912 -22.543  1.00  0.00     0.110 C 
BRANCH   5   6
HETATM    6  C   UNL     1      24.417  12.334 -21.391  1.00  0.00     0.010 C 
BRANCH   6   7
HETATM    7  C   UNL     1      24.677  11.485 -20.140  1.00  0.00     0.001 C 
BRANCH   7   8
HETATM    8  C   UNL     1      23.681  11.832 -19.028  1.00  0.00     0.000 C 
BRANCH   8   9
HETATM    9  C   UNL     1      24.401  12.412 -17.805  1.00  0.00     0.000 C 
BRANCH   9  10
HETATM   10  C   UNL     1      24.875  11.292 -16.872  1.00  0.00     0.004 C 
BRANCH  10  11
HETATM   11  C   UNL     1      25.461  11.856 -15.575  1.00  0.00     0.027 C 
BRANCH  11  12
HETATM   12  C   UNL     1      26.837  11.275 -15.352  1.00  0.00    -0.031 C 
HETATM   13  C   UNL     1      28.002  11.952 -15.323  1.00  0.00    -0.031 C 
BRANCH  13  14
HETATM   14  C   UNL     1      28.198  13.441 -15.515  1.00  0.00     0.027 C 
BRANCH  14  15
HETATM   15  C   UNL     1      28.733  13.755 -16.923  1.00  0.00     0.004 C 
BRANCH  15  16
HETATM   16  C   UNL     1      27.638  13.993 -17.982  1.00  0.00     0.000 C 
BRANCH  16  17
HETATM   17  C   UNL     1      27.846  13.171 -19.265  1.00  0.00     0.000 C 
BRANCH  17  18
HETATM   18  C   UNL     1      28.128  11.699 -18.938  1.00  0.00     0.000 C 
BRANCH  18  19
HETATM   19  C   UNL     1      28.259  10.867 -20.220  1.00  0.00    -0.000 C 
BRANCH  19  20
HETATM   20  C   UNL     1      29.459  11.327 -21.056  1.00  0.00    -0.005 C 
HETATM   21  C   UNL     1      29.052  11.593 -22.502  1.00  0.00     0.005 C 
ENDBRANCH  19  20
ENDBRANCH  18  19
ENDBRANCH  17  18
ENDBRANCH  16  17
ENDBRANCH  15  16
ENDBRANCH  14  15
ENDBRANCH  13  14
ENDBRANCH  11  12
ENDBRANCH  10  11
ENDBRANCH   9  10
ENDBRANCH   8   9
ENDBRANCH   7   8
ENDBRANCH   6   7
ENDBRANCH   5   6
ENDBRANCH   3   5
ENDBRANCH   1   3
TORSDOF 16
ENDMDL
MODEL 14
REMARK VINA RESULT:      -5.0      1.682      2.258
REMARK  16 active torsions:
REMARK  status: ('A' for Active; 'I' for Inactive)
REMARK    1  A    between atoms: O_1  and  C_20 
REMARK    2  A    between atoms: C_3  and  C_4 
REMARK    3  A    between atoms: C_3  and  C_5 
REMARK    4  A    between atoms: C_4  and  C_8 
REMARK    5  A    between atoms: C_5  and  C_11 
REMARK    6  A    between atoms: C_6  and  C_7 
REMARK    7  A    between atoms: C_6  and  C_9 
REMARK    8  A    between atoms: C_7  and  C_10 
REMARK    9  A    between atoms: C_8  and  C_12 
REMARK   10  A    between atoms: C_9  and  C_13 
REMARK   11  A    between atoms: C_10  and  C_14 
REMARK   12  A    between atoms: C_11  and  C_15 
REMARK   13  A    between atoms: C_12  and  C_16 
REMARK   14  A    between atoms: C_13  and  C_17 
REMARK   15  A    between atoms: C_14  and  C_18 
REMARK   16  A    between atoms: C_18  and  C_20 
ROOT
HETATM    1  O   UNL     1      26.528  12.606  -8.714  1.00  0.00    -0.776 OA
HETATM    2  H   UNL     1      25.833  13.120  -9.150  1.00  0.00     0.167 HD
ENDROOT
BRANCH   1   3
HETATM    3  C   UNL     1      27.761  12.491  -9.249  1.00  0.00     0.139 C 
HETATM    4  O   UNL     1      28.639  13.280  -8.925  1.00  0.00    -0.650 OA
BRANCH   3   5
HETATM    5  C   UNL     1      28.029  11.387 -10.237  1.00  0.00     0.110 C 
BRANCH   5   6
HETATM    6  C   UNL     1      26.807  11.038 -11.098  1.00  0.00     0.010 C 
BRANCH   6   7
HETATM    7  C   UNL     1      26.107  12.307 -11.599  1.00  0.00     0.001 C 
BRANCH   7   8
HETATM    8  C   UNL     1      24.728  11.978 -12.182  1.00  0.00     0.000 C 
BRANCH   8   9
HETATM    9  C   UNL     1      24.857  11.210 -13.502  1.00  0.00     0.000 C 
BRANCH   9  10
HETATM   10  C   UNL     1      24.121  11.941 -14.630  1.00  0.00     0.004 C 
BRANCH  10  11
HETATM   11  C   UNL     1      25.078  12.341 -15.755  1.00  0.00     0.027 C 
BRANCH  11  12
HETATM   12  C   UNL     1      25.263  11.174 -16.696  1.00  0.00    -0.031 C 
HETATM   13  C   UNL     1      24.772  11.062 -17.946  1.00  0.00    -0.031 C 
BRANCH  13  14
HETATM   14  C   UNL     1      23.921  12.071 -18.687  1.00  0.00     0.027 C 
BRANCH  14  15
HETATM   15  C   UNL     1      24.221  12.051 -20.196  1.00  0.00     0.004 C 
BRANCH  15  16
HETATM   16  C   UNL     1      25.463  11.226 -20.587  1.00  0.00     0.000 C 
BRANCH  16  17
HETATM   17  C   UNL     1      26.679  12.095 -20.949  1.00  0.00     0.000 C 
BRANCH  17  18
HETATM   18  C   UNL     1      26.464  12.819 -22.284  1.00  0.00     0.000 C 
BRANCH  18  19
HETATM   19  C   UNL     1      26.408  11.822 -23.448  1.00  0.00    -0.000 C 
BRANCH  19  20
HETATM   20  C   UNL     1      25.222  12.120 -24.373  1.00  0.00    -0.005 C 
HETATM   21  C   UNL     1      23.931  11.525 -23.822  1.00  0.00     0.005 C 
ENDBRANCH  19  20
ENDBRANCH  18  19
ENDBRANCH  17  18
ENDBRANCH  16  17
ENDBRANCH  15  16
ENDBRANCH  14  15
ENDBRANCH  13  14
ENDBRANCH  11  12
ENDBRANCH  10  11
ENDBRANCH   9  10
ENDBRANCH   8   9
ENDBRANCH   7   8
ENDBRANCH   6   7
ENDBRANCH   5   6
ENDBRANCH   3   5
ENDBRANCH   1   3
TORSDOF 16
ENDMDL
MODEL 15
REMARK VINA RESULT:      -4.9      1.793      2.164
REMARK  16 active torsions:
REMARK  status: ('A' for Active; 'I' for Inactive)
REMARK    1  A    between atoms: O_1  and  C_20 
REMARK    2  A    between atoms: C_3  and  C_4 
REMARK    3  A    between atoms: C_3  and  C_5 
REMARK    4  A    between atoms: C_4  and  C_8 
REMARK    5  A    between atoms: C_5  and  C_11 
REMARK    6  A    between atoms: C_6  and  C_7 
REMARK    7  A    between atoms: C_6  and  C_9 
REMARK    8  A    between atoms: C_7  and  C_10 
REMARK    9  A    between atoms: C_8  and  C_12 
REMARK   10  A    between atoms: C_9  and  C_13 
REMARK   11  A    between atoms: C_10  and  C_14 
REMARK   12  A    between atoms: C_11  and  C_15 
REMARK   13  A    between atoms: C_12  and  C_16 
REMARK   14  A    between atoms: C_13  and  C_17 
REMARK   15  A    between atoms: C_14  and  C_18 
REMARK   16  A    between atoms: C_18  and  C_20 
ROOT
HETATM    1  O   UNL     1      27.667  12.559  -8.745  1.00  0.00    -0.776 OA
HETATM    2  H   UNL     1      27.891  12.126  -9.581  1.00  0.00     0.167 HD
ENDROOT
BRANCH   1   3
HETATM    3  C   UNL     1      26.406  12.559  -8.266  1.00  0.00     0.139 C 
HETATM    4  O   UNL     1      26.083  13.367  -7.406  1.00  0.00    -0.650 OA
BRANCH   3   5
HETATM    5  C   UNL     1      25.419  11.558  -8.806  1.00  0.00     0.110 C 
BRANCH   5   6
HETATM    6  C   UNL     1      24.322  12.197  -9.669  1.00  0.00     0.010 C 
BRANCH   6   7
HETATM    7  C   UNL     1      24.692  12.144 -11.157  1.00  0.00     0.001 C 
BRANCH   7   8
HETATM    8  C   UNL     1      25.479  10.870 -11.479  1.00  0.00     0.000 C 
BRANCH   8   9
HETATM    9  C   UNL     1      26.549  11.137 -12.545  1.00  0.00     0.000 C 
BRANCH   9  10
HETATM   10  C   UNL     1      26.620  12.630 -12.880  1.00  0.00     0.004 C 
BRANCH  10  11
HETATM   11  C   UNL     1      26.606  12.865 -14.393  1.00  0.00     0.027 C 
BRANCH  11  12
HETATM   12  C   UNL     1      26.423  11.545 -15.103  1.00  0.00    -0.031 C 
HETATM   13  C   UNL     1      25.458  11.235 -15.993  1.00  0.00    -0.031 C 
BRANCH  13  14
HETATM   14  C   UNL     1      24.338  12.133 -16.473  1.00  0.00     0.027 C 
BRANCH  14  15
HETATM   15  C   UNL     1      24.620  12.665 -17.889  1.00  0.00     0.004 C 
BRANCH  15  16
HETATM   16  C   UNL     1      23.863  11.924 -19.011  1.00  0.00     0.000 C 
BRANCH  16  17
HETATM   17  C   UNL     1      24.797  11.255 -20.033  1.00  0.00     0.000 C 
BRANCH  17  18
HETATM   18  C   UNL     1      26.108  12.038 -20.179  1.00  0.00     0.000 C 
BRANCH  18  19
HETATM   19  C   UNL     1      27.187  11.182 -20.853  1.00  0.00    -0.000 C 
BRANCH  19  20
HETATM   20  C   UNL     1      27.611  11.785 -22.197  1.00  0.00    -0.005 C 
HETATM   21  C   UNL     1      27.051  13.194 -22.369  1.00  0.00     0.005 C 
ENDBRANCH  19  20
ENDBRANCH  18  19
ENDBRANCH  17  18
ENDBRANCH  16  17
ENDBRANCH  15  16
ENDBRANCH  14  15
ENDBRANCH  13  14
ENDBRANCH  11  12
ENDBRANCH  10  11
ENDBRANCH   9  10
ENDBRANCH   8   9
ENDBRANCH   7   8
ENDBRANCH   6   7
ENDBRANCH   5   6
ENDBRANCH   3   5
ENDBRANCH   1   3
TORSDOF 16
ENDMDL
MODEL 16
REMARK VINA RESULT:      -4.9      5.369      8.815
REMARK  16 active torsions:
REMARK  status: ('A' for Active; 'I' for Inactive)
REMARK    1  A    between atoms: O_1  and  C_20 
REMARK    2  A    between atoms: C_3  and  C_4 
REMARK    3  A    between atoms: C_3  and  C_5 
REMARK    4  A    between atoms: C_4  and  C_8 
REMARK    5  A    between atoms: C_5  and  C_11 
REMARK    6  A    between atoms: C_6  and  C_7 
REMARK    7  A    between atoms: C_6  and  C_9 
REMARK    8  A    between atoms: C_7  and  C_10 
REMARK    9  A    between atoms: C_8  and  C_12 
REMARK   10  A    between atoms: C_9  and  C_13 
REMARK   11  A    between atoms: C_10  and  C_14 
REMARK   12  A    between atoms: C_11  and  C_15 
REMARK   13  A    between atoms: C_12  and  C_16 
REMARK   14  A    between atoms: C_13  and  C_17 
REMARK   15  A    between atoms: C_14  and  C_18 
REMARK   16  A    between atoms: C_18  and  C_20 
ROOT
HETATM    1  O   UNL     1      30.686  16.275 -11.759  1.00  0.00    -0.776 OA
HETATM    2  H   UNL     1      30.810  17.209 -11.539  1.00  0.00     0.167 HD
ENDROOT
BRANCH   1   3
HETATM    3  C   UNL     1      29.455  15.736 -11.882  1.00  0.00     0.139 C 
HETATM    4  O   UNL     1      28.506  16.452 -12.171  1.00  0.00    -0.650 OA
BRANCH   3   5
HETATM    5  C   UNL     1      29.278  14.257 -11.661  1.00  0.00     0.110 C 
BRANCH   5   6
HETATM    6  C   UNL     1      27.905  13.895 -11.078  1.00  0.00     0.010 C 
BRANCH   6   7
HETATM    7  C   UNL     1      28.048  13.246  -9.696  1.00  0.00     0.001 C 
BRANCH   7   8
HETATM    8  C   UNL     1      28.124  14.311  -8.597  1.00  0.00     0.000 C 
BRANCH   8   9
HETATM    9  C   UNL     1      28.742  13.739  -7.316  1.00  0.00     0.000 C 
BRANCH   9  10
HETATM   10  C   UNL     1      27.822  13.979  -6.114  1.00  0.00     0.004 C 
BRANCH  10  11
HETATM   11  C   UNL     1      27.616  12.697  -5.303  1.00  0.00     0.027 C 
BRANCH  11  12
HETATM   12  C   UNL     1      27.626  11.508  -6.233  1.00  0.00    -0.031 C 
HETATM   13  C   UNL     1      26.568  10.985  -6.885  1.00  0.00    -0.031 C 
BRANCH  13  14
HETATM   14  C   UNL     1      25.133  11.465  -6.828  1.00  0.00     0.027 C 
BRANCH  14  15
HETATM   15  C   UNL     1      24.829  12.449  -7.971  1.00  0.00     0.004 C 
BRANCH  15  16
HETATM   16  C   UNL     1      23.748  11.964  -8.958  1.00  0.00     0.000 C 
BRANCH  16  17
HETATM   17  C   UNL     1      24.144  12.154 -10.432  1.00  0.00     0.000 C 
BRANCH  17  18
HETATM   18  C   UNL     1      25.287  11.208 -10.823  1.00  0.00     0.000 C 
BRANCH  18  19
HETATM   19  C   UNL     1      25.564  11.275 -12.329  1.00  0.00    -0.000 C 
BRANCH  19  20
HETATM   20  C   UNL     1      24.709  12.356 -13.001  1.00  0.00    -0.005 C 
HETATM   21  C   UNL     1      23.798  11.754 -14.067  1.00  0.00     0.005 C 
ENDBRANCH  19  20
ENDBRANCH  18  19
ENDBRANCH  17  18
ENDBRANCH  16  17
ENDBRANCH  15  16
ENDBRANCH  14  15
ENDBRANCH  13  14
ENDBRANCH  11  12
ENDBRANCH  10  11
ENDBRANCH   9  10
ENDBRANCH   8   9
ENDBRANCH   7   8
ENDBRANCH   6   7
ENDBRANCH   5   6
ENDBRANCH   3   5
ENDBRANCH   1   3
TORSDOF 16
ENDMDL
MODEL 17
REMARK VINA RESULT:      -4.8      1.927      2.793
REMARK  16 active torsions:
REMARK  status: ('A' for Active; 'I' for Inactive)
REMARK    1  A    between atoms: O_1  and  C_20 
REMARK    2  A    between atoms: C_3  and  C_4 
REMARK    3  A    between atoms: C_3  and  C_5 
REMARK    4  A    between atoms: C_4  and  C_8 
REMARK    5  A    between atoms: C_5  and  C_11 
REMARK    6  A    between atoms: C_6  and  C_7 
REMARK    7  A    between atoms: C_6  and  C_9 
REMARK    8  A    between atoms: C_7  and  C_10 
REMARK    9  A    between atoms: C_8  and  C_12 
REMARK   10  A    between atoms: C_9  and  C_13 
REMARK   11  A    between atoms: C_10  and  C_14 
REMARK   12  A    between atoms: C_11  and  C_15 
REMARK   13  A    between atoms: C_12  and  C_16 
REMARK   14  A    between atoms: C_13  and  C_17 
REMARK   15  A    between atoms: C_14  and  C_18 
REMARK   16  A    between atoms: C_18  and  C_20 
ROOT
HETATM    1  O   UNL     1      27.976  13.831 -11.133  1.00  0.00    -0.776 OA
HETATM    2  H   UNL     1      27.205  14.414 -11.199  1.00  0.00     0.167 HD
ENDROOT
BRANCH   1   3
HETATM    3  C   UNL     1      27.866  12.496 -11.290  1.00  0.00     0.139 C 
HETATM    4  O   UNL     1      28.684  11.896 -11.975  1.00  0.00    -0.650 OA
BRANCH   3   5
HETATM    5  C   UNL     1      26.731  11.771 -10.616  1.00  0.00     0.110 C 
BRANCH   5   6
HETATM    6  C   UNL     1      25.367  12.055 -11.259  1.00  0.00     0.010 C 
BRANCH   6   7
HETATM    7  C   UNL     1      25.185  11.242 -12.546  1.00  0.00     0.001 C 
BRANCH   7   8
HETATM    8  C   UNL     1      24.113  11.870 -13.443  1.00  0.00     0.000 C 
BRANCH   8   9
HETATM    9  C   UNL     1      24.511  11.786 -14.921  1.00  0.00     0.000 C 
BRANCH   9  10
HETATM   10  C   UNL     1      26.036  11.754 -15.071  1.00  0.00     0.004 C 
BRANCH  10  11
HETATM   11  C   UNL     1      26.454  11.068 -16.375  1.00  0.00     0.027 C 
BRANCH  11  12
HETATM   12  C   UNL     1      25.279  11.031 -17.322  1.00  0.00    -0.031 C 
HETATM   13  C   UNL     1      25.183  11.655 -18.513  1.00  0.00    -0.031 C 
BRANCH  13  14
HETATM   14  C   UNL     1      26.225  12.539 -19.166  1.00  0.00     0.027 C 
BRANCH  14  15
HETATM   15  C   UNL     1      26.409  12.177 -20.651  1.00  0.00     0.004 C 
BRANCH  15  16
HETATM   16  C   UNL     1      25.281  11.305 -21.238  1.00  0.00     0.000 C 
BRANCH  16  17
HETATM   17  C   UNL     1      24.325  12.086 -22.154  1.00  0.00     0.000 C 
BRANCH  17  18
HETATM   18  C   UNL     1      24.277  11.469 -23.558  1.00  0.00     0.000 C 
BRANCH  18  19
HETATM   19  C   UNL     1      25.315  12.119 -24.480  1.00  0.00    -0.000 C 
BRANCH  19  20
HETATM   20  C   UNL     1      26.741  11.773 -24.036  1.00  0.00    -0.005 C 
HETATM   21  C   UNL     1      27.477  10.984 -25.114  1.00  0.00     0.005 C 
ENDBRANCH  19  20
ENDBRANCH  18  19
ENDBRANCH  17  18
ENDBRANCH  16  17
ENDBRANCH  15  16
ENDBRANCH  14  15
ENDBRANCH  13  14
ENDBRANCH  11  12
ENDBRANCH  10  11
ENDBRANCH   9  10
ENDBRANCH   8   9
ENDBRANCH   7   8
ENDBRANCH   6   7
ENDBRANCH   5   6
ENDBRANCH   3   5
ENDBRANCH   1   3
TORSDOF 16
ENDMDL
MODEL 18
REMARK VINA RESULT:      -4.8      4.258      7.311
REMARK  16 active torsions:
REMARK  status: ('A' for Active; 'I' for Inactive)
REMARK    1  A    between atoms: O_1  and  C_20 
REMARK    2  A    between atoms: C_3  and  C_4 
REMARK    3  A    between atoms: C_3  and  C_5 
REMARK    4  A    between atoms: C_4  and  C_8 
REMARK    5  A    between atoms: C_5  and  C_11 
REMARK    6  A    between atoms: C_6  and  C_7 
REMARK    7  A    between atoms: C_6  and  C_9 
REMARK    8  A    between atoms: C_7  and  C_10 
REMARK    9  A    between atoms: C_8  and  C_12 
REMARK   10  A    between atoms: C_9  and  C_13 
REMARK   11  A    between atoms: C_10  and  C_14 
REMARK   12  A    between atoms: C_11  and  C_15 
REMARK   13  A    between atoms: C_12  and  C_16 
REMARK   14  A    between atoms: C_13  and  C_17 
REMARK   15  A    between atoms: C_14  and  C_18 
REMARK   16  A    between atoms: C_18  and  C_20 
ROOT
HETATM    1  O   UNL     1      27.678  12.984 -15.236  1.00  0.00    -0.776 OA
HETATM    2  H   UNL     1      27.693  13.767 -14.668  1.00  0.00     0.167 HD
ENDROOT
BRANCH   1   3
HETATM    3  C   UNL     1      26.554  12.257 -15.406  1.00  0.00     0.139 C 
HETATM    4  O   UNL     1      25.651  12.333 -14.583  1.00  0.00    -0.650 OA
BRANCH   3   5
HETATM    5  C   UNL     1      26.436  11.363 -16.613  1.00  0.00     0.110 C 
BRANCH   5   6
HETATM    6  C   UNL     1      24.982  11.096 -17.026  1.00  0.00     0.010 C 
BRANCH   6   7
HETATM    7  C   UNL     1      24.435  12.243 -17.885  1.00  0.00     0.001 C 
BRANCH   7   8
HETATM    8  C   UNL     1      23.817  11.708 -19.181  1.00  0.00     0.000 C 
BRANCH   8   9
HETATM    9  C   UNL     1      24.590  12.204 -20.408  1.00  0.00     0.000 C 
BRANCH   9  10
HETATM   10  C   UNL     1      25.335  11.048 -21.085  1.00  0.00     0.004 C 
BRANCH  10  11
HETATM   11  C   UNL     1      26.739  11.470 -21.526  1.00  0.00     0.027 C 
BRANCH  11  12
HETATM   12  C   UNL     1      27.708  11.255 -20.389  1.00  0.00    -0.031 C 
HETATM   13  C   UNL     1      28.240  12.204 -19.593  1.00  0.00    -0.031 C 
BRANCH  13  14
HETATM   14  C   UNL     1      27.995  13.696 -19.662  1.00  0.00     0.027 C 
BRANCH  14  15
HETATM   15  C   UNL     1      29.169  14.422 -20.343  1.00  0.00     0.004 C 
BRANCH  15  16
HETATM   16  C   UNL     1      28.861  15.872 -20.767  1.00  0.00     0.000 C 
BRANCH  16  17
HETATM   17  C   UNL     1      30.046  16.829 -20.561  1.00  0.00     0.000 C 
BRANCH  17  18
HETATM   18  C   UNL     1      30.242  17.155 -19.074  1.00  0.00     0.000 C 
BRANCH  18  19
HETATM   19  C   UNL     1      29.118  18.060 -18.557  1.00  0.00    -0.000 C 
BRANCH  19  20
HETATM   20  C   UNL     1      28.740  17.702 -17.115  1.00  0.00    -0.005 C 
HETATM   21  C   UNL     1      28.416  16.217 -16.983  1.00  0.00     0.005 C 
ENDBRANCH  19  20
ENDBRANCH  18  19
ENDBRANCH  17  18
ENDBRANCH  16  17
ENDBRANCH  15  16
ENDBRANCH  14  15
ENDBRANCH  13  14
ENDBRANCH  11  12
ENDBRANCH  10  11
ENDBRANCH   9  10
ENDBRANCH   8   9
ENDBRANCH   7   8
ENDBRANCH   6   7
ENDBRANCH   5   6
ENDBRANCH   3   5
ENDBRANCH   1   3
TORSDOF 16
ENDMDL
MODEL 19
REMARK VINA RESULT:      -4.8      3.681      6.826
REMARK  16 active torsions:
REMARK  status: ('A' for Active; 'I' for Inactive)
REMARK    1  A    between atoms: O_1  and  C_20 
REMARK    2  A    between atoms: C_3  and  C_4 
REMARK    3  A    between atoms: C_3  and  C_5 
REMARK    4  A    between atoms: C_4  and  C_8 
REMARK    5  A    between atoms: C_5  and  C_11 
REMARK    6  A    between atoms: C_6  and  C_7 
REMARK    7  A    between atoms: C_6  and  C_9 
REMARK    8  A    between atoms: C_7  and  C_10 
REMARK    9  A    between atoms: C_8  and  C_12 
REMARK   10  A    between atoms: C_9  and  C_13 
REMARK   11  A    between atoms: C_10  and  C_14 
REMARK   12  A    between atoms: C_11  and  C_15 
REMARK   13  A    between atoms: C_12  and  C_16 
REMARK   14  A    between atoms: C_13  and  C_17 
REMARK   15  A    between atoms: C_14  and  C_18 
REMARK   16  A    between atoms: C_18  and  C_20 
ROOT
HETATM    1  O   UNL     1      28.475  12.604  -7.655  1.00  0.00    -0.776 OA
HETATM    2  H   UNL     1      28.643  13.463  -8.068  1.00  0.00     0.167 HD
ENDROOT
BRANCH   1   3
HETATM    3  C   UNL     1      27.271  12.001  -7.746  1.00  0.00     0.139 C 
HETATM    4  O   UNL     1      27.038  11.006  -7.073  1.00  0.00    -0.650 OA
BRANCH   3   5
HETATM    5  C   UNL     1      26.236  12.571  -8.680  1.00  0.00     0.110 C 
BRANCH   5   6
HETATM    6  C   UNL     1      24.876  11.868  -8.575  1.00  0.00     0.010 C 
BRANCH   6   7
HETATM    7  C   UNL     1      24.149  11.874  -9.925  1.00  0.00     0.001 C 
BRANCH   7   8
HETATM    8  C   UNL     1      25.095  11.465 -11.058  1.00  0.00     0.000 C 
BRANCH   8   9
HETATM    9  C   UNL     1      24.820  12.280 -12.328  1.00  0.00     0.000 C 
BRANCH   9  10
HETATM   10  C   UNL     1      24.302  11.376 -13.451  1.00  0.00     0.004 C 
BRANCH  10  11
HETATM   11  C   UNL     1      24.018  12.176 -14.726  1.00  0.00     0.027 C 
BRANCH  11  12
HETATM   12  C   UNL     1      24.776  11.566 -15.880  1.00  0.00    -0.031 C 
HETATM   13  C   UNL     1      26.104  11.639 -16.102  1.00  0.00    -0.031 C 
BRANCH  13  14
HETATM   14  C   UNL     1      27.133  12.354 -15.252  1.00  0.00     0.027 C 
BRANCH  14  15
HETATM   15  C   UNL     1      28.042  11.351 -14.519  1.00  0.00     0.004 C 
BRANCH  15  16
HETATM   16  C   UNL     1      29.094  12.002 -13.598  1.00  0.00     0.000 C 
BRANCH  16  17
HETATM   17  C   UNL     1      28.496  12.562 -12.297  1.00  0.00     0.000 C 
BRANCH  17  18
HETATM   18  C   UNL     1      29.168  11.938 -11.066  1.00  0.00     0.000 C 
BRANCH  18  19
HETATM   19  C   UNL     1      28.618  10.534 -10.792  1.00  0.00    -0.000 C 
BRANCH  19  20
HETATM   20  C   UNL     1      29.753   9.510 -10.673  1.00  0.00    -0.005 C 
HETATM   21  C   UNL     1      30.771   9.936  -9.620  1.00  0.00     0.005 C 
ENDBRANCH  19  20
ENDBRANCH  18  19
ENDBRANCH  17  18
ENDBRANCH  16  17
ENDBRANCH  15  16
ENDBRANCH  14  15
ENDBRANCH  13  14
ENDBRANCH  11  12
ENDBRANCH  10  11
ENDBRANCH   9  10
ENDBRANCH   8   9
ENDBRANCH   7   8
ENDBRANCH   6   7
ENDBRANCH   5   6
ENDBRANCH   3   5
ENDBRANCH   1   3
TORSDOF 16
ENDMDL
MODEL 20
REMARK VINA RESULT:      -4.8      9.284     13.401
REMARK  16 active torsions:
REMARK  status: ('A' for Active; 'I' for Inactive)
REMARK    1  A    between atoms: O_1  and  C_20 
REMARK    2  A    between atoms: C_3  and  C_4 
REMARK    3  A    between atoms: C_3  and  C_5 
REMARK    4  A    between atoms: C_4  and  C_8 
REMARK    5  A    between atoms: C_5  and  C_11 
REMARK    6  A    between atoms: C_6  and  C_7 
REMARK    7  A    between atoms: C_6  and  C_9 
REMARK    8  A    between atoms: C_7  and  C_10 
REMARK    9  A    between atoms: C_8  and  C_12 
REMARK   10  A    between atoms: C_9  and  C_13 
REMARK   11  A    between atoms: C_10  and  C_14 
REMARK   12  A    between atoms: C_11  and  C_15 
REMARK   13  A    between atoms: C_12  and  C_16 
REMARK   14  A    between atoms: C_13  and  C_17 
REMARK   15  A    between atoms: C_14  and  C_18 
REMARK   16  A    between atoms: C_18  and  C_20 
ROOT
HETATM    1  O   UNL     1      31.056   6.953 -16.329  1.00  0.00    -0.776 OA
HETATM    2  H   UNL     1      31.115   7.099 -17.284  1.00  0.00     0.167 HD
ENDROOT
BRANCH   1   3
HETATM    3  C   UNL     1      31.912   6.131 -15.687  1.00  0.00     0.139 C 
HETATM    4  O   UNL     1      32.384   5.167 -16.276  1.00  0.00    -0.650 OA
BRANCH   3   5
HETATM    5  C   UNL     1      32.268   6.420 -14.253  1.00  0.00     0.110 C 
BRANCH   5   6
HETATM    6  C   UNL     1      33.768   6.270 -13.962  1.00  0.00     0.010 C 
BRANCH   6   7
HETATM    7  C   UNL     1      34.373   7.600 -13.496  1.00  0.00     0.001 C 
BRANCH   7   8
HETATM    8  C   UNL     1      33.277   8.641 -13.243  1.00  0.00     0.000 C 
BRANCH   8   9
HETATM    9  C   UNL     1      33.642   9.551 -12.065  1.00  0.00     0.000 C 
BRANCH   9  10
HETATM   10  C   UNL     1      32.442   9.738 -11.131  1.00  0.00     0.004 C 
BRANCH  10  11
HETATM   11  C   UNL     1      31.281   8.819 -11.522  1.00  0.00     0.027 C 
BRANCH  11  12
HETATM   12  C   UNL     1      30.796   8.075 -10.301  1.00  0.00    -0.031 C 
HETATM   13  C   UNL     1      31.290   6.920  -9.813  1.00  0.00    -0.031 C 
BRANCH  13  14
HETATM   14  C   UNL     1      32.432   6.103 -10.379  1.00  0.00     0.027 C 
BRANCH  14  15
HETATM   15  C   UNL     1      33.672   6.175  -9.470  1.00  0.00     0.004 C 
BRANCH  15  16
HETATM   16  C   UNL     1      34.996   6.431 -10.219  1.00  0.00     0.000 C 
BRANCH  16  17
HETATM   17  C   UNL     1      35.775   7.640  -9.676  1.00  0.00     0.000 C 
BRANCH  17  18
HETATM   18  C   UNL     1      34.932   8.435  -8.669  1.00  0.00     0.000 C 
BRANCH  18  19
HETATM   19  C   UNL     1      35.571   8.409  -7.276  1.00  0.00    -0.000 C 
BRANCH  19  20
HETATM   20  C   UNL     1      34.575   7.915  -6.220  1.00  0.00    -0.005 C 
HETATM   21  C   UNL     1      35.100   6.674  -5.506  1.00  0.00     0.005 C 
ENDBRANCH  19  20
ENDBRANCH  18  19
ENDBRANCH  17  18
ENDBRANCH  16  17
ENDBRANCH  15  16
ENDBRANCH  14  15
ENDBRANCH  13  14
ENDBRANCH  11  12
ENDBRANCH  10  11
ENDBRANCH   9  10
ENDBRANCH   8   9
ENDBRANCH   7   8
ENDBRANCH   6   7
ENDBRANCH   5   6
ENDBRANCH   3   5
ENDBRANCH   1   3
TORSDOF 16
ENDMDL
