MODEL 1
REMARK VINA RESULT:      -5.5      0.000      0.000
REMARK  15 active torsions:
REMARK  status: ('A' for Active; 'I' for Inactive)
REMARK    1  A    between atoms: O_1  and  C_18 
REMARK    2  A    between atoms: C_3  and  C_4 
REMARK    3  A    between atoms: C_3  and  C_5 
REMARK    4  A    between atoms: C_4  and  C_6 
REMARK    5  A    between atoms: C_5  and  C_7 
REMARK    6  A    between atoms: C_6  and  C_8 
REMARK    7  A    between atoms: C_7  and  C_9 
REMARK    8  A    between atoms: C_8  and  C_10 
REMARK    9  A    between atoms: C_9  and  C_11 
REMARK   10  A    between atoms: C_10  and  C_12 
REMARK   11  A    between atoms: C_11  and  C_13 
REMARK   12  A    between atoms: C_12  and  C_14 
REMARK   13  A    between atoms: C_13  and  C_15 
REMARK   14  A    between atoms: C_14  and  C_16 
REMARK   15  A    between atoms: C_16  and  C_18 
ROOT
HETATM    1  O   UNL     1      27.539  13.317  -9.834  1.00  0.00    -0.776 OA
HETATM    2  H   UNL     1      27.412  14.266  -9.702  1.00  0.00     0.167 HD
ENDROOT
BRANCH   1   3
HETATM    3  C   UNL     1      27.152  12.418  -8.903  1.00  0.00     0.139 C 
HETATM    4  O   UNL     1      27.959  11.612  -8.465  1.00  0.00    -0.650 OA
BRANCH   3   5
HETATM    5  C   UNL     1      25.723  12.433  -8.424  1.00  0.00     0.110 C 
BRANCH   5   6
HETATM    6  C   UNL     1      24.810  11.487  -9.219  1.00  0.00     0.010 C 
BRANCH   6   7
HETATM    7  C   UNL     1      24.329  12.148 -10.515  1.00  0.00     0.001 C 
BRANCH   7   8
HETATM    8  C   UNL     1      24.885  11.420 -11.745  1.00  0.00     0.000 C 
BRANCH   8   9
HETATM    9  C   UNL     1      24.868  12.330 -12.979  1.00  0.00     0.000 C 
BRANCH   9  10
HETATM   10  C   UNL     1      23.727  11.949 -13.928  1.00  0.00     0.000 C 
BRANCH  10  11
HETATM   11  C   UNL     1      24.135  12.160 -15.391  1.00  0.00     0.000 C 
BRANCH  11  12
HETATM   12  C   UNL     1      25.569  11.677 -15.640  1.00  0.00     0.000 C 
BRANCH  12  13
HETATM   13  C   UNL     1      25.661  10.873 -16.941  1.00  0.00     0.000 C 
BRANCH  13  14
HETATM   14  C   UNL     1      25.513  11.787 -18.164  1.00  0.00     0.000 C 
BRANCH  14  15
HETATM   15  C   UNL     1      24.308  11.373 -19.018  1.00  0.00     0.000 C 
BRANCH  15  16
HETATM   16  C   UNL     1      24.257  12.176 -20.323  1.00  0.00     0.000 C 
BRANCH  16  17
HETATM   17  C   UNL     1      25.275  11.642 -21.338  1.00  0.00    -0.000 C 
BRANCH  17  18
HETATM   18  C   UNL     1      24.571  11.073 -22.575  1.00  0.00    -0.005 C 
HETATM   19  C   UNL     1      24.172  12.185 -23.542  1.00  0.00     0.005 C 
ENDBRANCH  17  18
ENDBRANCH  16  17
ENDBRANCH  15  16
ENDBRANCH  14  15
ENDBRANCH  13  14
ENDBRANCH  12  13
ENDBRANCH  11  12
ENDBRANCH  10  11
ENDBRANCH   9  10
ENDBRANCH   8   9
ENDBRANCH   7   8
ENDBRANCH   6   7
ENDBRANCH   5   6
ENDBRANCH   3   5
ENDBRANCH   1   3
TORSDOF 15
ENDMDL
MODEL 2
REMARK VINA RESULT:      -5.5      4.533      9.868
REMARK  15 active torsions:
REMARK  status: ('A' for Active; 'I' for Inactive)
REMARK    1  A    between atoms: O_1  and  C_18 
REMARK    2  A    between atoms: C_3  and  C_4 
REMARK    3  A    between atoms: C_3  and  C_5 
REMARK    4  A    between atoms: C_4  and  C_6 
REMARK    5  A    between atoms: C_5  and  C_7 
REMARK    6  A    between atoms: C_6  and  C_8 
REMARK    7  A    between atoms: C_7  and  C_9 
REMARK    8  A    between atoms: C_8  and  C_10 
REMARK    9  A    between atoms: C_9  and  C_11 
REMARK   10  A    between atoms: C_10  and  C_12 
REMARK   11  A    between atoms: C_11  and  C_13 
REMARK   12  A    between atoms: C_12  and  C_14 
REMARK   13  A    between atoms: C_13  and  C_15 
REMARK   14  A    between atoms: C_14  and  C_16 
REMARK   15  A    between atoms: C_16  and  C_18 
ROOT
HETATM    1  O   UNL     1      28.623  13.235 -22.091  1.00  0.00    -0.776 OA
HETATM    2  H   UNL     1      28.196  14.068 -21.845  1.00  0.00     0.167 HD
ENDROOT
BRANCH   1   3
HETATM    3  C   UNL     1      28.064  12.043 -21.794  1.00  0.00     0.139 C 
HETATM    4  O   UNL     1      27.991  11.176 -22.652  1.00  0.00    -0.650 OA
BRANCH   3   5
HETATM    5  C   UNL     1      27.540  11.809 -20.400  1.00  0.00     0.110 C 
BRANCH   5   6
HETATM    6  C   UNL     1      26.182  11.089 -20.380  1.00  0.00     0.010 C 
BRANCH   6   7
HETATM    7  C   UNL     1      25.069  12.001 -20.907  1.00  0.00     0.001 C 
BRANCH   7   8
HETATM    8  C   UNL     1      23.991  12.228 -19.839  1.00  0.00     0.000 C 
BRANCH   8   9
HETATM    9  C   UNL     1      24.365  11.534 -18.524  1.00  0.00     0.000 C 
BRANCH   9  10
HETATM   10  C   UNL     1      24.288  12.512 -17.345  1.00  0.00     0.000 C 
BRANCH  10  11
HETATM   11  C   UNL     1      24.684  11.824 -16.033  1.00  0.00     0.000 C 
BRANCH  11  12
HETATM   12  C   UNL     1      23.761  12.251 -14.886  1.00  0.00     0.000 C 
BRANCH  12  13
HETATM   13  C   UNL     1      23.976  11.372 -13.649  1.00  0.00     0.000 C 
BRANCH  13  14
HETATM   14  C   UNL     1      25.443  11.402 -13.202  1.00  0.00     0.000 C 
BRANCH  14  15
HETATM   15  C   UNL     1      25.611  10.754 -11.822  1.00  0.00     0.000 C 
BRANCH  15  16
HETATM   16  C   UNL     1      25.621  11.814 -10.714  1.00  0.00     0.000 C 
BRANCH  16  17
HETATM   17  C   UNL     1      24.193  12.229 -10.337  1.00  0.00    -0.000 C 
BRANCH  17  18
HETATM   18  C   UNL     1      23.800  11.662  -8.968  1.00  0.00    -0.005 C 
HETATM   19  C   UNL     1      25.034  11.343  -8.128  1.00  0.00     0.005 C 
ENDBRANCH  17  18
ENDBRANCH  16  17
ENDBRANCH  15  16
ENDBRANCH  14  15
ENDBRANCH  13  14
ENDBRANCH  12  13
ENDBRANCH  11  12
ENDBRANCH  10  11
ENDBRANCH   9  10
ENDBRANCH   8   9
ENDBRANCH   7   8
ENDBRANCH   6   7
ENDBRANCH   5   6
ENDBRANCH   3   5
ENDBRANCH   1   3
TORSDOF 15
ENDMDL
MODEL 3
REMARK VINA RESULT:      -5.4      4.601     10.751
REMARK  15 active torsions:
REMARK  status: ('A' for Active; 'I' for Inactive)
REMARK    1  A    between atoms: O_1  and  C_18 
REMARK    2  A    between atoms: C_3  and  C_4 
REMARK    3  A    between atoms: C_3  and  C_5 
REMARK    4  A    between atoms: C_4  and  C_6 
REMARK    5  A    between atoms: C_5  and  C_7 
REMARK    6  A    between atoms: C_6  and  C_8 
REMARK    7  A    between atoms: C_7  and  C_9 
REMARK    8  A    between atoms: C_8  and  C_10 
REMARK    9  A    between atoms: C_9  and  C_11 
REMARK   10  A    between atoms: C_10  and  C_12 
REMARK   11  A    between atoms: C_11  and  C_13 
REMARK   12  A    between atoms: C_12  and  C_14 
REMARK   13  A    between atoms: C_13  and  C_15 
REMARK   14  A    between atoms: C_14  and  C_16 
REMARK   15  A    between atoms: C_16  and  C_18 
ROOT
HETATM    1  O   UNL     1      24.785  12.496 -22.825  1.00  0.00    -0.776 OA
HETATM    2  H   UNL     1      23.901  12.161 -23.028  1.00  0.00     0.167 HD
ENDROOT
BRANCH   1   3
HETATM    3  C   UNL     1      25.657  11.780 -22.083  1.00  0.00     0.139 C 
HETATM    4  O   UNL     1      26.799  11.610 -22.486  1.00  0.00    -0.650 OA
BRANCH   3   5
HETATM    5  C   UNL     1      25.197  11.204 -20.769  1.00  0.00     0.110 C 
BRANCH   5   6
HETATM    6  C   UNL     1      24.318  12.171 -19.962  1.00  0.00     0.010 C 
BRANCH   6   7
HETATM    7  C   UNL     1      23.852  11.526 -18.652  1.00  0.00     0.001 C 
BRANCH   7   8
HETATM    8  C   UNL     1      24.616  12.101 -17.453  1.00  0.00     0.000 C 
BRANCH   8   9
HETATM    9  C   UNL     1      25.622  11.083 -16.902  1.00  0.00     0.000 C 
BRANCH   9  10
HETATM   10  C   UNL     1      25.938  11.364 -15.428  1.00  0.00     0.000 C 
BRANCH  10  11
HETATM   11  C   UNL     1      24.759  12.059 -14.736  1.00  0.00     0.000 C 
BRANCH  11  12
HETATM   12  C   UNL     1      24.429  11.385 -13.400  1.00  0.00     0.000 C 
BRANCH  12  13
HETATM   13  C   UNL     1      24.992  12.190 -12.223  1.00  0.00     0.000 C 
BRANCH  13  14
HETATM   14  C   UNL     1      24.370  11.735 -10.897  1.00  0.00     0.000 C 
BRANCH  14  15
HETATM   15  C   UNL     1      25.397  11.788  -9.760  1.00  0.00     0.000 C 
BRANCH  15  16
HETATM   16  C   UNL     1      24.812  11.219  -8.463  1.00  0.00     0.000 C 
BRANCH  16  17
HETATM   17  C   UNL     1      24.913  12.237  -7.320  1.00  0.00    -0.000 C 
BRANCH  17  18
HETATM   18  C   UNL     1      25.120  11.534  -5.974  1.00  0.00    -0.005 C 
HETATM   19  C   UNL     1      24.100  12.009  -4.942  1.00  0.00     0.005 C 
ENDBRANCH  17  18
ENDBRANCH  16  17
ENDBRANCH  15  16
ENDBRANCH  14  15
ENDBRANCH  13  14
ENDBRANCH  12  13
ENDBRANCH  11  12
ENDBRANCH  10  11
ENDBRANCH   9  10
ENDBRANCH   8   9
ENDBRANCH   7   8
ENDBRANCH   6   7
ENDBRANCH   5   6
ENDBRANCH   3   5
ENDBRANCH   1   3
TORSDOF 15
ENDMDL
MODEL 4
REMARK VINA RESULT:      -5.0      3.890     10.086
REMARK  15 active torsions:
REMARK  status: ('A' for Active; 'I' for Inactive)
REMARK    1  A    between atoms: O_1  and  C_18 
REMARK    2  A    between atoms: C_3  and  C_4 
REMARK    3  A    between atoms: C_3  and  C_5 
REMARK    4  A    between atoms: C_4  and  C_6 
REMARK    5  A    between atoms: C_5  and  C_7 
REMARK    6  A    between atoms: C_6  and  C_8 
REMARK    7  A    between atoms: C_7  and  C_9 
REMARK    8  A    between atoms: C_8  and  C_10 
REMARK    9  A    between atoms: C_9  and  C_11 
REMARK   10  A    between atoms: C_10  and  C_12 
REMARK   11  A    between atoms: C_11  and  C_13 
REMARK   12  A    between atoms: C_12  and  C_14 
REMARK   13  A    between atoms: C_13  and  C_15 
REMARK   14  A    between atoms: C_14  and  C_16 
REMARK   15  A    between atoms: C_16  and  C_18 
ROOT
HETATM    1  O   UNL     1      26.435  11.122 -17.901  1.00  0.00    -0.776 OA
HETATM    2  H   UNL     1      26.506  10.930 -18.846  1.00  0.00     0.167 HD
ENDROOT
BRANCH   1   3
HETATM    3  C   UNL     1      25.721  12.175 -17.448  1.00  0.00     0.139 C 
HETATM    4  O   UNL     1      25.986  13.302 -17.841  1.00  0.00    -0.650 OA
BRANCH   3   5
HETATM    5  C   UNL     1      24.606  11.932 -16.464  1.00  0.00     0.110 C 
BRANCH   5   6
HETATM    6  C   UNL     1      25.094  11.847 -15.009  1.00  0.00     0.010 C 
BRANCH   6   7
HETATM    7  C   UNL     1      23.912  11.771 -14.037  1.00  0.00     0.001 C 
BRANCH   7   8
HETATM    8  C   UNL     1      24.291  12.341 -12.664  1.00  0.00     0.000 C 
BRANCH   8   9
HETATM    9  C   UNL     1      25.418  11.525 -12.021  1.00  0.00     0.000 C 
BRANCH   9  10
HETATM   10  C   UNL     1      25.090  11.187 -10.563  1.00  0.00     0.000 C 
BRANCH  10  11
HETATM   11  C   UNL     1      24.121  12.214  -9.965  1.00  0.00     0.000 C 
BRANCH  11  12
HETATM   12  C   UNL     1      24.377  12.407  -8.466  1.00  0.00     0.000 C 
BRANCH  12  13
HETATM   13  C   UNL     1      24.786  11.087  -7.803  1.00  0.00     0.000 C 
BRANCH  13  14
HETATM   14  C   UNL     1      26.119  11.235  -7.059  1.00  0.00     0.000 C 
BRANCH  14  15
HETATM   15  C   UNL     1      26.004  12.257  -5.921  1.00  0.00     0.000 C 
BRANCH  15  16
HETATM   16  C   UNL     1      27.326  13.006  -5.720  1.00  0.00     0.000 C 
BRANCH  16  17
HETATM   17  C   UNL     1      28.321  12.678  -6.839  1.00  0.00    -0.000 C 
BRANCH  17  18
HETATM   18  C   UNL     1      28.810  13.954  -7.533  1.00  0.00    -0.005 C 
HETATM   19  C   UNL     1      28.059  15.181  -7.022  1.00  0.00     0.005 C 
ENDBRANCH  17  18
ENDBRANCH  16  17
ENDBRANCH  15  16
ENDBRANCH  14  15
ENDBRANCH  13  14
ENDBRANCH  12  13
ENDBRANCH  11  12
ENDBRANCH  10  11
ENDBRANCH   9  10
ENDBRANCH   8   9
ENDBRANCH   7   8
ENDBRANCH   6   7
ENDBRANCH   5   6
ENDBRANCH   3   5
ENDBRANCH   1   3
TORSDOF 15
ENDMDL
MODEL 5
REMARK VINA RESULT:      -4.9      2.266      4.818
REMARK  15 active torsions:
REMARK  status: ('A' for Active; 'I' for Inactive)
REMARK    1  A    between atoms: O_1  and  C_18 
REMARK    2  A    between atoms: C_3  and  C_4 
REMARK    3  A    between atoms: C_3  and  C_5 
REMARK    4  A    between atoms: C_4  and  C_6 
REMARK    5  A    between atoms: C_5  and  C_7 
REMARK    6  A    between atoms: C_6  and  C_8 
REMARK    7  A    between atoms: C_7  and  C_9 
REMARK    8  A    between atoms: C_8  and  C_10 
REMARK    9  A    between atoms: C_9  and  C_11 
REMARK   10  A    between atoms: C_10  and  C_12 
REMARK   11  A    between atoms: C_11  and  C_13 
REMARK   12  A    between atoms: C_12  and  C_14 
REMARK   13  A    between atoms: C_13  and  C_15 
REMARK   14  A    between atoms: C_14  and  C_16 
REMARK   15  A    between atoms: C_16  and  C_18 
ROOT
HETATM    1  O   UNL     1      26.559  11.966 -10.992  1.00  0.00    -0.776 OA
HETATM    2  H   UNL     1      26.631  11.500 -10.148  1.00  0.00     0.167 HD
ENDROOT
BRANCH   1   3
HETATM    3  C   UNL     1      25.402  11.991 -11.687  1.00  0.00     0.139 C 
HETATM    4  O   UNL     1      24.370  12.344 -11.134  1.00  0.00    -0.650 OA
BRANCH   3   5
HETATM    5  C   UNL     1      25.411  11.582 -13.137  1.00  0.00     0.110 C 
BRANCH   5   6
HETATM    6  C   UNL     1      24.010  11.565 -13.768  1.00  0.00     0.010 C 
BRANCH   6   7
HETATM    7  C   UNL     1      24.022  12.227 -15.150  1.00  0.00     0.001 C 
BRANCH   7   8
HETATM    8  C   UNL     1      24.960  11.483 -16.108  1.00  0.00     0.000 C 
BRANCH   8   9
HETATM    9  C   UNL     1      25.062  12.210 -17.454  1.00  0.00     0.000 C 
BRANCH   9  10
HETATM   10  C   UNL     1      24.246  11.488 -18.532  1.00  0.00     0.000 C 
BRANCH  10  11
HETATM   11  C   UNL     1      24.357  12.208 -19.882  1.00  0.00     0.000 C 
BRANCH  11  12
HETATM   12  C   UNL     1      25.035  11.317 -20.929  1.00  0.00     0.000 C 
BRANCH  12  13
HETATM   13  C   UNL     1      26.481  11.760 -21.176  1.00  0.00     0.000 C 
BRANCH  13  14
HETATM   14  C   UNL     1      27.471  10.827 -20.468  1.00  0.00     0.000 C 
BRANCH  14  15
HETATM   15  C   UNL     1      28.466  11.625 -19.617  1.00  0.00     0.000 C 
BRANCH  15  16
HETATM   16  C   UNL     1      28.280  13.133 -19.821  1.00  0.00     0.000 C 
BRANCH  16  17
HETATM   17  C   UNL     1      27.620  13.777 -18.596  1.00  0.00    -0.000 C 
BRANCH  17  18
HETATM   18  C   UNL     1      28.550  13.724 -17.379  1.00  0.00    -0.005 C 
HETATM   19  C   UNL     1      28.297  14.902 -16.441  1.00  0.00     0.005 C 
ENDBRANCH  17  18
ENDBRANCH  16  17
ENDBRANCH  15  16
ENDBRANCH  14  15
ENDBRANCH  13  14
ENDBRANCH  12  13
ENDBRANCH  11  12
ENDBRANCH  10  11
ENDBRANCH   9  10
ENDBRANCH   8   9
ENDBRANCH   7   8
ENDBRANCH   6   7
ENDBRANCH   5   6
ENDBRANCH   3   5
ENDBRANCH   1   3
TORSDOF 15
ENDMDL
MODEL 6
REMARK VINA RESULT:      -4.9      4.812      8.580
REMARK  15 active torsions:
REMARK  status: ('A' for Active; 'I' for Inactive)
REMARK    1  A    between atoms: O_1  and  C_18 
REMARK    2  A    between atoms: C_3  and  C_4 
REMARK    3  A    between atoms: C_3  and  C_5 
REMARK    4  A    between atoms: C_4  and  C_6 
REMARK    5  A    between atoms: C_5  and  C_7 
REMARK    6  A    between atoms: C_6  and  C_8 
REMARK    7  A    between atoms: C_7  and  C_9 
REMARK    8  A    between atoms: C_8  and  C_10 
REMARK    9  A    between atoms: C_9  and  C_11 
REMARK   10  A    between atoms: C_10  and  C_12 
REMARK   11  A    between atoms: C_11  and  C_13 
REMARK   12  A    between atoms: C_12  and  C_14 
REMARK   13  A    between atoms: C_13  and  C_15 
REMARK   14  A    between atoms: C_14  and  C_16 
REMARK   15  A    between atoms: C_16  and  C_18 
ROOT
HETATM    1  O   UNL     1      26.104  12.520 -23.085  1.00  0.00    -0.776 OA
HETATM    2  H   UNL     1      26.140  12.071 -23.941  1.00  0.00     0.167 HD
ENDROOT
BRANCH   1   3
HETATM    3  C   UNL     1      25.168  12.206 -22.164  1.00  0.00     0.139 C 
HETATM    4  O   UNL     1      24.118  12.833 -22.127  1.00  0.00    -0.650 OA
BRANCH   3   5
HETATM    5  C   UNL     1      25.441  11.081 -21.200  1.00  0.00     0.110 C 
BRANCH   5   6
HETATM    6  C   UNL     1      26.320  11.505 -20.013  1.00  0.00     0.010 C 
BRANCH   6   7
HETATM    7  C   UNL     1      25.485  12.194 -18.928  1.00  0.00     0.001 C 
BRANCH   7   8
HETATM    8  C   UNL     1      24.696  11.167 -18.107  1.00  0.00     0.000 C 
BRANCH   8   9
HETATM    9  C   UNL     1      25.111  11.205 -16.631  1.00  0.00     0.000 C 
BRANCH   9  10
HETATM   10  C   UNL     1      24.405  12.346 -15.890  1.00  0.00     0.000 C 
BRANCH  10  11
HETATM   11  C   UNL     1      23.804  11.854 -14.568  1.00  0.00     0.000 C 
BRANCH  11  12
HETATM   12  C   UNL     1      24.893  11.314 -13.634  1.00  0.00     0.000 C 
BRANCH  12  13
HETATM   13  C   UNL     1      24.919  12.090 -12.313  1.00  0.00     0.000 C 
BRANCH  13  14
HETATM   14  C   UNL     1      26.339  12.565 -11.982  1.00  0.00     0.000 C 
BRANCH  14  15
HETATM   15  C   UNL     1      27.351  12.028 -13.001  1.00  0.00     0.000 C 
BRANCH  15  16
HETATM   16  C   UNL     1      28.102  13.175 -13.688  1.00  0.00     0.000 C 
BRANCH  16  17
HETATM   17  C   UNL     1      27.928  13.113 -15.210  1.00  0.00    -0.000 C 
BRANCH  17  18
HETATM   18  C   UNL     1      28.214  14.476 -15.851  1.00  0.00    -0.005 C 
HETATM   19  C   UNL     1      27.864  14.470 -17.337  1.00  0.00     0.005 C 
ENDBRANCH  17  18
ENDBRANCH  16  17
ENDBRANCH  15  16
ENDBRANCH  14  15
ENDBRANCH  13  14
ENDBRANCH  12  13
ENDBRANCH  11  12
ENDBRANCH  10  11
ENDBRANCH   9  10
ENDBRANCH   8   9
ENDBRANCH   7   8
ENDBRANCH   6   7
ENDBRANCH   5   6
ENDBRANCH   3   5
ENDBRANCH   1   3
TORSDOF 15
ENDMDL
MODEL 7
REMARK VINA RESULT:      -4.8      3.824      8.835
REMARK  15 active torsions:
REMARK  status: ('A' for Active; 'I' for Inactive)
REMARK    1  A    between atoms: O_1  and  C_18 
REMARK    2  A    between atoms: C_3  and  C_4 
REMARK    3  A    between atoms: C_3  and  C_5 
REMARK    4  A    between atoms: C_4  and  C_6 
REMARK    5  A    between atoms: C_5  and  C_7 
REMARK    6  A    between atoms: C_6  and  C_8 
REMARK    7  A    between atoms: C_7  and  C_9 
REMARK    8  A    between atoms: C_8  and  C_10 
REMARK    9  A    between atoms: C_9  and  C_11 
REMARK   10  A    between atoms: C_10  and  C_12 
REMARK   11  A    between atoms: C_11  and  C_13 
REMARK   12  A    between atoms: C_12  and  C_14 
REMARK   13  A    between atoms: C_13  and  C_15 
REMARK   14  A    between atoms: C_14  and  C_16 
REMARK   15  A    between atoms: C_16  and  C_18 
ROOT
HETATM    1  O   UNL     1      26.056  13.178 -17.466  1.00  0.00    -0.776 OA
HETATM    2  H   UNL     1      26.250  13.601 -18.314  1.00  0.00     0.167 HD
ENDROOT
BRANCH   1   3
HETATM    3  C   UNL     1      26.000  11.834 -17.346  1.00  0.00     0.139 C 
HETATM    4  O   UNL     1      26.568  11.128 -18.167  1.00  0.00    -0.650 OA
BRANCH   3   5
HETATM    5  C   UNL     1      25.235  11.235 -16.195  1.00  0.00     0.110 C 
BRANCH   5   6
HETATM    6  C   UNL     1      24.493  12.284 -15.353  1.00  0.00     0.010 C 
BRANCH   6   7
HETATM    7  C   UNL     1      23.845  11.641 -14.122  1.00  0.00     0.001 C 
BRANCH   7   8
HETATM    8  C   UNL     1      24.884  11.383 -13.024  1.00  0.00     0.000 C 
BRANCH   8   9
HETATM    9  C   UNL     1      24.487  12.076 -11.715  1.00  0.00     0.000 C 
BRANCH   9  10
HETATM   10  C   UNL     1      25.105  11.364 -10.506  1.00  0.00     0.000 C 
BRANCH  10  11
HETATM   11  C   UNL     1      24.837  12.144  -9.213  1.00  0.00     0.000 C 
BRANCH  11  12
HETATM   12  C   UNL     1      24.722  11.198  -8.013  1.00  0.00     0.000 C 
BRANCH  12  13
HETATM   13  C   UNL     1      25.938  11.329  -7.089  1.00  0.00     0.000 C 
BRANCH  13  14
HETATM   14  C   UNL     1      26.612  12.696  -7.258  1.00  0.00     0.000 C 
BRANCH  14  15
HETATM   15  C   UNL     1      28.099  12.539  -7.596  1.00  0.00     0.000 C 
BRANCH  15  16
HETATM   16  C   UNL     1      28.412  13.117  -8.981  1.00  0.00     0.000 C 
BRANCH  16  17
HETATM   17  C   UNL     1      28.488  12.007 -10.036  1.00  0.00    -0.000 C 
BRANCH  17  18
HETATM   18  C   UNL     1      28.758  12.589 -11.428  1.00  0.00    -0.005 C 
HETATM   19  C   UNL     1      27.712  13.636 -11.800  1.00  0.00     0.005 C 
ENDBRANCH  17  18
ENDBRANCH  16  17
ENDBRANCH  15  16
ENDBRANCH  14  15
ENDBRANCH  13  14
ENDBRANCH  12  13
ENDBRANCH  11  12
ENDBRANCH  10  11
ENDBRANCH   9  10
ENDBRANCH   8   9
ENDBRANCH   7   8
ENDBRANCH   6   7
ENDBRANCH   5   6
ENDBRANCH   3   5
ENDBRANCH   1   3
TORSDOF 15
ENDMDL
MODEL 8
REMARK VINA RESULT:      -4.8      2.757      4.373
REMARK  15 active torsions:
REMARK  status: ('A' for Active; 'I' for Inactive)
REMARK    1  A    between atoms: O_1  and  C_18 
REMARK    2  A    between atoms: C_3  and  C_4 
REMARK    3  A    between atoms: C_3  and  C_5 
REMARK    4  A    between atoms: C_4  and  C_6 
REMARK    5  A    between atoms: C_5  and  C_7 
REMARK    6  A    between atoms: C_6  and  C_8 
REMARK    7  A    between atoms: C_7  and  C_9 
REMARK    8  A    between atoms: C_8  and  C_10 
REMARK    9  A    between atoms: C_9  and  C_11 
REMARK   10  A    between atoms: C_10  and  C_12 
REMARK   11  A    between atoms: C_11  and  C_13 
REMARK   12  A    between atoms: C_12  and  C_14 
REMARK   13  A    between atoms: C_13  and  C_15 
REMARK   14  A    between atoms: C_14  and  C_16 
REMARK   15  A    between atoms: C_16  and  C_18 
ROOT
HETATM    1  O   UNL     1      24.256  12.865 -12.078  1.00  0.00    -0.776 OA
HETATM    2  H   UNL     1      23.475  12.963 -11.516  1.00  0.00     0.167 HD
ENDROOT
BRANCH   1   3
HETATM    3  C   UNL     1      24.566  11.684 -12.654  1.00  0.00     0.139 C 
HETATM    4  O   UNL     1      25.297  10.897 -12.069  1.00  0.00    -0.650 OA
BRANCH   3   5
HETATM    5  C   UNL     1      23.998  11.363 -14.012  1.00  0.00     0.110 C 
BRANCH   5   6
HETATM    6  C   UNL     1      24.748  12.058 -15.159  1.00  0.00     0.010 C 
BRANCH   6   7
HETATM    7  C   UNL     1      25.663  11.073 -15.894  1.00  0.00     0.001 C 
BRANCH   7   8
HETATM    8  C   UNL     1      27.092  11.131 -15.341  1.00  0.00     0.000 C 
BRANCH   8   9
HETATM    9  C   UNL     1      27.400  12.515 -14.757  1.00  0.00     0.000 C 
BRANCH   9  10
HETATM   10  C   UNL     1      28.740  13.047 -15.280  1.00  0.00     0.000 C 
BRANCH  10  11
HETATM   11  C   UNL     1      28.746  14.580 -15.319  1.00  0.00     0.000 C 
BRANCH  11  12
HETATM   12  C   UNL     1      28.139  15.100 -16.628  1.00  0.00     0.000 C 
BRANCH  12  13
HETATM   13  C   UNL     1      29.045  14.776 -17.821  1.00  0.00     0.000 C 
BRANCH  13  14
HETATM   14  C   UNL     1      28.260  14.064 -18.930  1.00  0.00     0.000 C 
BRANCH  14  15
HETATM   15  C   UNL     1      27.033  13.342 -18.360  1.00  0.00     0.000 C 
BRANCH  15  16
HETATM   16  C   UNL     1      26.714  12.079 -19.167  1.00  0.00     0.000 C 
BRANCH  16  17
HETATM   17  C   UNL     1      26.192  12.436 -20.564  1.00  0.00    -0.000 C 
BRANCH  17  18
HETATM   18  C   UNL     1      24.798  11.844 -20.798  1.00  0.00    -0.005 C 
HETATM   19  C   UNL     1      23.889  12.080 -19.595  1.00  0.00     0.005 C 
ENDBRANCH  17  18
ENDBRANCH  16  17
ENDBRANCH  15  16
ENDBRANCH  14  15
ENDBRANCH  13  14
ENDBRANCH  12  13
ENDBRANCH  11  12
ENDBRANCH  10  11
ENDBRANCH   9  10
ENDBRANCH   8   9
ENDBRANCH   7   8
ENDBRANCH   6   7
ENDBRANCH   5   6
ENDBRANCH   3   5
ENDBRANCH   1   3
TORSDOF 15
ENDMDL
MODEL 9
REMARK VINA RESULT:      -4.7      2.794      4.333
REMARK  15 active torsions:
REMARK  status: ('A' for Active; 'I' for Inactive)
REMARK    1  A    between atoms: O_1  and  C_18 
REMARK    2  A    between atoms: C_3  and  C_4 
REMARK    3  A    between atoms: C_3  and  C_5 
REMARK    4  A    between atoms: C_4  and  C_6 
REMARK    5  A    between atoms: C_5  and  C_7 
REMARK    6  A    between atoms: C_6  and  C_8 
REMARK    7  A    between atoms: C_7  and  C_9 
REMARK    8  A    between atoms: C_8  and  C_10 
REMARK    9  A    between atoms: C_9  and  C_11 
REMARK   10  A    between atoms: C_10  and  C_12 
REMARK   11  A    between atoms: C_11  and  C_13 
REMARK   12  A    between atoms: C_12  and  C_14 
REMARK   13  A    between atoms: C_13  and  C_15 
REMARK   14  A    between atoms: C_14  and  C_16 
REMARK   15  A    between atoms: C_16  and  C_18 
ROOT
HETATM    1  O   UNL     1      26.107  13.031  -6.425  1.00  0.00    -0.776 OA
HETATM    2  H   UNL     1      26.802  13.185  -7.080  1.00  0.00     0.167 HD
ENDROOT
BRANCH   1   3
HETATM    3  C   UNL     1      25.152  12.097  -6.618  1.00  0.00     0.139 C 
HETATM    4  O   UNL     1      24.950  11.249  -5.761  1.00  0.00    -0.650 OA
BRANCH   3   5
HETATM    5  C   UNL     1      24.351  12.124  -7.895  1.00  0.00     0.110 C 
BRANCH   5   6
HETATM    6  C   UNL     1      25.223  12.278  -9.150  1.00  0.00     0.010 C 
BRANCH   6   7
HETATM    7  C   UNL     1      24.400  12.050 -10.423  1.00  0.00     0.001 C 
BRANCH   7   8
HETATM    8  C   UNL     1      25.261  11.436 -11.533  1.00  0.00     0.000 C 
BRANCH   8   9
HETATM    9  C   UNL     1      25.378  12.387 -12.730  1.00  0.00     0.000 C 
BRANCH   9  10
HETATM   10  C   UNL     1      25.358  11.613 -14.052  1.00  0.00     0.000 C 
BRANCH  10  11
HETATM   11  C   UNL     1      24.138  11.997 -14.897  1.00  0.00     0.000 C 
BRANCH  11  12
HETATM   12  C   UNL     1      24.530  12.221 -16.362  1.00  0.00     0.000 C 
BRANCH  12  13
HETATM   13  C   UNL     1      25.313  11.023 -16.912  1.00  0.00     0.000 C 
BRANCH  13  14
HETATM   14  C   UNL     1      26.640  11.473 -17.535  1.00  0.00     0.000 C 
BRANCH  14  15
HETATM   15  C   UNL     1      26.678  12.996 -17.710  1.00  0.00     0.000 C 
BRANCH  15  16
HETATM   16  C   UNL     1      28.010  13.573 -17.218  1.00  0.00     0.000 C 
BRANCH  16  17
HETATM   17  C   UNL     1      27.889  14.085 -15.777  1.00  0.00    -0.000 C 
BRANCH  17  18
HETATM   18  C   UNL     1      28.669  13.188 -14.808  1.00  0.00    -0.005 C 
HETATM   19  C   UNL     1      29.028  13.941 -13.530  1.00  0.00     0.005 C 
ENDBRANCH  17  18
ENDBRANCH  16  17
ENDBRANCH  15  16
ENDBRANCH  14  15
ENDBRANCH  13  14
ENDBRANCH  12  13
ENDBRANCH  11  12
ENDBRANCH  10  11
ENDBRANCH   9  10
ENDBRANCH   8   9
ENDBRANCH   7   8
ENDBRANCH   6   7
ENDBRANCH   5   6
ENDBRANCH   3   5
ENDBRANCH   1   3
TORSDOF 15
ENDMDL
MODEL 10
REMARK VINA RESULT:      -4.7      5.395     10.851
REMARK  15 active torsions:
REMARK  status: ('A' for Active; 'I' for Inactive)
REMARK    1  A    between atoms: O_1  and  C_18 
REMARK    2  A    between atoms: C_3  and  C_4 
REMARK    3  A    between atoms: C_3  and  C_5 
REMARK    4  A    between atoms: C_4  and  C_6 
REMARK    5  A    between atoms: C_5  and  C_7 
REMARK    6  A    between atoms: C_6  and  C_8 
REMARK    7  A    between atoms: C_7  and  C_9 
REMARK    8  A    between atoms: C_8  and  C_10 
REMARK    9  A    between atoms: C_9  and  C_11 
REMARK   10  A    between atoms: C_10  and  C_12 
REMARK   11  A    between atoms: C_11  and  C_13 
REMARK   12  A    between atoms: C_12  and  C_14 
REMARK   13  A    between atoms: C_13  and  C_15 
REMARK   14  A    between atoms: C_14  and  C_16 
REMARK   15  A    between atoms: C_16  and  C_18 
ROOT
HETATM    1  O   UNL     1      30.515  11.292 -24.882  1.00  0.00    -0.776 OA
HETATM    2  H   UNL     1      30.542  10.903 -25.767  1.00  0.00     0.167 HD
ENDROOT
BRANCH   1   3
HETATM    3  C   UNL     1      29.631  10.867 -23.953  1.00  0.00     0.139 C 
HETATM    4  O   UNL     1      29.777   9.771 -23.433  1.00  0.00    -0.650 OA
BRANCH   3   5
HETATM    5  C   UNL     1      28.479  11.763 -23.578  1.00  0.00     0.110 C 
BRANCH   5   6
HETATM    6  C   UNL     1      27.568  12.103 -24.767  1.00  0.00     0.010 C 
BRANCH   6   7
HETATM    7  C   UNL     1      26.371  11.147 -24.833  1.00  0.00     0.001 C 
BRANCH   7   8
HETATM    8  C   UNL     1      25.112  11.874 -25.321  1.00  0.00     0.000 C 
BRANCH   8   9
HETATM    9  C   UNL     1      24.111  12.069 -24.176  1.00  0.00     0.000 C 
BRANCH   9  10
HETATM   10  C   UNL     1      24.607  11.396 -22.891  1.00  0.00     0.000 C 
BRANCH  10  11
HETATM   11  C   UNL     1      24.548  12.366 -21.705  1.00  0.00     0.000 C 
BRANCH  11  12
HETATM   12  C   UNL     1      24.890  11.651 -20.392  1.00  0.00     0.000 C 
BRANCH  12  13
HETATM   13  C   UNL     1      23.796  11.876 -19.342  1.00  0.00     0.000 C 
BRANCH  13  14
HETATM   14  C   UNL     1      24.388  12.428 -18.040  1.00  0.00     0.000 C 
BRANCH  14  15
HETATM   15  C   UNL     1      25.480  11.499 -17.494  1.00  0.00     0.000 C 
BRANCH  15  16
HETATM   16  C   UNL     1      25.237  11.175 -16.016  1.00  0.00     0.000 C 
BRANCH  16  17
HETATM   17  C   UNL     1      26.110  12.051 -15.110  1.00  0.00    -0.000 C 
BRANCH  17  18
HETATM   18  C   UNL     1      25.368  12.420 -13.820  1.00  0.00    -0.005 C 
HETATM   19  C   UNL     1      24.593  11.225 -13.270  1.00  0.00     0.005 C 
ENDBRANCH  17  18
ENDBRANCH  16  17
ENDBRANCH  15  16
ENDBRANCH  14  15
ENDBRANCH  13  14
ENDBRANCH  12  13
ENDBRANCH  11  12
ENDBRANCH  10  11
ENDBRANCH   9  10
ENDBRANCH   8   9
ENDBRANCH   7   8
ENDBRANCH   6   7
ENDBRANCH   5   6
ENDBRANCH   3   5
ENDBRANCH   1   3
TORSDOF 15
ENDMDL
MODEL 11
REMARK VINA RESULT:      -4.7      4.586      7.125
REMARK  15 active torsions:
REMARK  status: ('A' for Active; 'I' for Inactive)
REMARK    1  A    between atoms: O_1  and  C_18 
REMARK    2  A    between atoms: C_3  and  C_4 
REMARK    3  A    between atoms: C_3  and  C_5 
REMARK    4  A    between atoms: C_4  and  C_6 
REMARK    5  A    between atoms: C_5  and  C_7 
REMARK    6  A    between atoms: C_6  and  C_8 
REMARK    7  A    between atoms: C_7  and  C_9 
REMARK    8  A    between atoms: C_8  and  C_10 
REMARK    9  A    between atoms: C_9  and  C_11 
REMARK   10  A    between atoms: C_10  and  C_12 
REMARK   11  A    between atoms: C_11  and  C_13 
REMARK   12  A    between atoms: C_12  and  C_14 
REMARK   13  A    between atoms: C_13  and  C_15 
REMARK   14  A    between atoms: C_14  and  C_16 
REMARK   15  A    between atoms: C_16  and  C_18 
ROOT
HETATM    1  O   UNL     1      28.711  12.200 -16.570  1.00  0.00    -0.776 OA
HETATM    2  H   UNL     1      29.029  12.285 -17.480  1.00  0.00     0.167 HD
ENDROOT
BRANCH   1   3
HETATM    3  C   UNL     1      27.613  11.472 -16.273  1.00  0.00     0.139 C 
HETATM    4  O   UNL     1      27.736  10.324 -15.871  1.00  0.00    -0.650 OA
BRANCH   3   5
HETATM    5  C   UNL     1      26.253  12.099 -16.445  1.00  0.00     0.110 C 
BRANCH   5   6
HETATM    6  C   UNL     1      25.289  11.230 -17.267  1.00  0.00     0.010 C 
BRANCH   6   7
HETATM    7  C   UNL     1      24.213  12.089 -17.940  1.00  0.00     0.001 C 
BRANCH   7   8
HETATM    8  C   UNL     1      24.010  11.672 -19.402  1.00  0.00     0.000 C 
BRANCH   8   9
HETATM    9  C   UNL     1      25.282  11.911 -20.224  1.00  0.00     0.000 C 
BRANCH   9  10
HETATM   10  C   UNL     1      25.145  11.323 -21.633  1.00  0.00     0.000 C 
BRANCH  10  11
HETATM   11  C   UNL     1      24.657  12.383 -22.627  1.00  0.00     0.000 C 
BRANCH  11  12
HETATM   12  C   UNL     1      23.903  11.738 -23.795  1.00  0.00     0.000 C 
BRANCH  12  13
HETATM   13  C   UNL     1      24.596  12.036 -25.130  1.00  0.00     0.000 C 
BRANCH  13  14
HETATM   14  C   UNL     1      25.589  10.926 -25.494  1.00  0.00     0.000 C 
BRANCH  14  15
HETATM   15  C   UNL     1      27.004  11.490 -25.672  1.00  0.00     0.000 C 
BRANCH  15  16
HETATM   16  C   UNL     1      27.017  13.011 -25.487  1.00  0.00     0.000 C 
BRANCH  16  17
HETATM   17  C   UNL     1      28.220  13.453 -24.645  1.00  0.00    -0.000 C 
BRANCH  17  18
HETATM   18  C   UNL     1      27.777  13.909 -23.250  1.00  0.00    -0.005 C 
HETATM   19  C   UNL     1      28.399  13.037 -22.162  1.00  0.00     0.005 C 
ENDBRANCH  17  18
ENDBRANCH  16  17
ENDBRANCH  15  16
ENDBRANCH  14  15
ENDBRANCH  13  14
ENDBRANCH  12  13
ENDBRANCH  11  12
ENDBRANCH  10  11
ENDBRANCH   9  10
ENDBRANCH   8   9
ENDBRANCH   7   8
ENDBRANCH   6   7
ENDBRANCH   5   6
ENDBRANCH   3   5
ENDBRANCH   1   3
TORSDOF 15
ENDMDL
MODEL 12
REMARK VINA RESULT:      -4.6      2.931      3.949
REMARK  15 active torsions:
REMARK  status: ('A' for Active; 'I' for Inactive)
REMARK    1  A    between atoms: O_1  and  C_18 
REMARK    2  A    between atoms: C_3  and  C_4 
REMARK    3  A    between atoms: C_3  and  C_5 
REMARK    4  A    between atoms: C_4  and  C_6 
REMARK    5  A    between atoms: C_5  and  C_7 
REMARK    6  A    between atoms: C_6  and  C_8 
REMARK    7  A    between atoms: C_7  and  C_9 
REMARK    8  A    between atoms: C_8  and  C_10 
REMARK    9  A    between atoms: C_9  and  C_11 
REMARK   10  A    between atoms: C_10  and  C_12 
REMARK   11  A    between atoms: C_11  and  C_13 
REMARK   12  A    between atoms: C_12  and  C_14 
REMARK   13  A    between atoms: C_13  and  C_15 
REMARK   14  A    between atoms: C_14  and  C_16 
REMARK   15  A    between atoms: C_16  and  C_18 
ROOT
HETATM    1  O   UNL     1      29.250  15.862 -14.019  1.00  0.00    -0.776 OA
HETATM    2  H   UNL     1      29.524  16.208 -14.880  1.00  0.00     0.167 HD
ENDROOT
BRANCH   1   3
HETATM    3  C   UNL     1      29.132  16.666 -12.942  1.00  0.00     0.139 C 
HETATM    4  O   UNL     1      29.344  17.865 -13.053  1.00  0.00    -0.650 OA
BRANCH   3   5
HETATM    5  C   UNL     1      28.737  16.062 -11.619  1.00  0.00     0.110 C 
BRANCH   5   6
HETATM    6  C   UNL     1      28.029  14.706 -11.762  1.00  0.00     0.010 C 
BRANCH   6   7
HETATM    7  C   UNL     1      28.234  13.844 -10.512  1.00  0.00     0.001 C 
BRANCH   7   8
HETATM    8  C   UNL     1      27.719  12.417 -10.737  1.00  0.00     0.000 C 
BRANCH   8   9
HETATM    9  C   UNL     1      26.200  12.343 -10.543  1.00  0.00     0.000 C 
BRANCH   9  10
HETATM   10  C   UNL     1      25.553  11.450 -11.608  1.00  0.00     0.000 C 
BRANCH  10  11
HETATM   11  C   UNL     1      25.438  12.187 -12.948  1.00  0.00     0.000 C 
BRANCH  11  12
HETATM   12  C   UNL     1      24.387  11.530 -13.850  1.00  0.00     0.000 C 
BRANCH  12  13
HETATM   13  C   UNL     1      24.448  12.100 -15.271  1.00  0.00     0.000 C 
BRANCH  13  14
HETATM   14  C   UNL     1      25.234  11.171 -16.204  1.00  0.00     0.000 C 
BRANCH  14  15
HETATM   15  C   UNL     1      25.547  11.863 -17.536  1.00  0.00     0.000 C 
BRANCH  15  16
HETATM   16  C   UNL     1      24.270  12.411 -18.184  1.00  0.00     0.000 C 
BRANCH  16  17
HETATM   17  C   UNL     1      23.980  11.704 -19.513  1.00  0.00    -0.000 C 
BRANCH  17  18
HETATM   18  C   UNL     1      24.999  12.109 -20.585  1.00  0.00    -0.005 C 
HETATM   19  C   UNL     1      25.436  10.903 -21.412  1.00  0.00     0.005 C 
ENDBRANCH  17  18
ENDBRANCH  16  17
ENDBRANCH  15  16
ENDBRANCH  14  15
ENDBRANCH  13  14
ENDBRANCH  12  13
ENDBRANCH  11  12
ENDBRANCH  10  11
ENDBRANCH   9  10
ENDBRANCH   8   9
ENDBRANCH   7   8
ENDBRANCH   6   7
ENDBRANCH   5   6
ENDBRANCH   3   5
ENDBRANCH   1   3
TORSDOF 15
ENDMDL
MODEL 13
REMARK VINA RESULT:      -4.6      4.853      8.612
REMARK  15 active torsions:
REMARK  status: ('A' for Active; 'I' for Inactive)
REMARK    1  A    between atoms: O_1  and  C_18 
REMARK    2  A    between atoms: C_3  and  C_4 
REMARK    3  A    between atoms: C_3  and  C_5 
REMARK    4  A    between atoms: C_4  and  C_6 
REMARK    5  A    between atoms: C_5  and  C_7 
REMARK    6  A    between atoms: C_6  and  C_8 
REMARK    7  A    between atoms: C_7  and  C_9 
REMARK    8  A    between atoms: C_8  and  C_10 
REMARK    9  A    between atoms: C_9  and  C_11 
REMARK   10  A    between atoms: C_10  and  C_12 
REMARK   11  A    between atoms: C_11  and  C_13 
REMARK   12  A    between atoms: C_12  and  C_14 
REMARK   13  A    between atoms: C_13  and  C_15 
REMARK   14  A    between atoms: C_14  and  C_16 
REMARK   15  A    between atoms: C_16  and  C_18 
ROOT
HETATM    1  O   UNL     1      28.645  13.234 -22.031  1.00  0.00    -0.776 OA
HETATM    2  H   UNL     1      28.324  14.093 -21.721  1.00  0.00     0.167 HD
ENDROOT
BRANCH   1   3
HETATM    3  C   UNL     1      27.968  12.095 -21.772  1.00  0.00     0.139 C 
HETATM    4  O   UNL     1      27.743  11.304 -22.677  1.00  0.00    -0.650 OA
BRANCH   3   5
HETATM    5  C   UNL     1      27.505  11.824 -20.364  1.00  0.00     0.110 C 
BRANCH   5   6
HETATM    6  C   UNL     1      26.139  11.123 -20.302  1.00  0.00     0.010 C 
BRANCH   6   7
HETATM    7  C   UNL     1      25.027  12.042 -20.820  1.00  0.00     0.001 C 
BRANCH   7   8
HETATM    8  C   UNL     1      23.940  12.243 -19.756  1.00  0.00     0.000 C 
BRANCH   8   9
HETATM    9  C   UNL     1      24.300  11.514 -18.456  1.00  0.00     0.000 C 
BRANCH   9  10
HETATM   10  C   UNL     1      24.167  12.447 -17.247  1.00  0.00     0.000 C 
BRANCH  10  11
HETATM   11  C   UNL     1      24.591  11.738 -15.955  1.00  0.00     0.000 C 
BRANCH  11  12
HETATM   12  C   UNL     1      23.784  12.248 -14.756  1.00  0.00     0.000 C 
BRANCH  12  13
HETATM   13  C   UNL     1      24.163  11.494 -13.477  1.00  0.00     0.000 C 
BRANCH  13  14
HETATM   14  C   UNL     1      25.683  11.483 -13.274  1.00  0.00     0.000 C 
BRANCH  14  15
HETATM   15  C   UNL     1      26.187  12.856 -12.814  1.00  0.00     0.000 C 
BRANCH  15  16
HETATM   16  C   UNL     1      27.638  13.084 -13.250  1.00  0.00     0.000 C 
BRANCH  16  17
HETATM   17  C   UNL     1      28.056  12.070 -14.322  1.00  0.00    -0.000 C 
BRANCH  17  18
HETATM   18  C   UNL     1      28.224  12.749 -15.686  1.00  0.00    -0.005 C 
HETATM   19  C   UNL     1      28.002  11.759 -16.826  1.00  0.00     0.005 C 
ENDBRANCH  17  18
ENDBRANCH  16  17
ENDBRANCH  15  16
ENDBRANCH  14  15
ENDBRANCH  13  14
ENDBRANCH  12  13
ENDBRANCH  11  12
ENDBRANCH  10  11
ENDBRANCH   9  10
ENDBRANCH   8   9
ENDBRANCH   7   8
ENDBRANCH   6   7
ENDBRANCH   5   6
ENDBRANCH   3   5
ENDBRANCH   1   3
TORSDOF 15
ENDMDL
MODEL 14
REMARK VINA RESULT:      -4.6      4.603      9.609
REMARK  15 active torsions:
REMARK  status: ('A' for Active; 'I' for Inactive)
REMARK    1  A    between atoms: O_1  and  C_18 
REMARK    2  A    between atoms: C_3  and  C_4 
REMARK    3  A    between atoms: C_3  and  C_5 
REMARK    4  A    between atoms: C_4  and  C_6 
REMARK    5  A    between atoms: C_5  and  C_7 
REMARK    6  A    between atoms: C_6  and  C_8 
REMARK    7  A    between atoms: C_7  and  C_9 
REMARK    8  A    between atoms: C_8  and  C_10 
REMARK    9  A    between atoms: C_9  and  C_11 
REMARK   10  A    between atoms: C_10  and  C_12 
REMARK   11  A    between atoms: C_11  and  C_13 
REMARK   12  A    between atoms: C_12  and  C_14 
REMARK   13  A    between atoms: C_13  and  C_15 
REMARK   14  A    between atoms: C_14  and  C_16 
REMARK   15  A    between atoms: C_16  and  C_18 
ROOT
HETATM    1  O   UNL     1      30.990  16.260 -20.663  1.00  0.00    -0.776 OA
HETATM    2  H   UNL     1      31.489  16.949 -21.123  1.00  0.00     0.167 HD
ENDROOT
BRANCH   1   3
HETATM    3  C   UNL     1      29.640  16.253 -20.661  1.00  0.00     0.139 C 
HETATM    4  O   UNL     1      29.027  17.286 -20.433  1.00  0.00    -0.650 OA
BRANCH   3   5
HETATM    5  C   UNL     1      28.916  14.962 -20.942  1.00  0.00     0.110 C 
BRANCH   5   6
HETATM    6  C   UNL     1      28.194  14.958 -22.298  1.00  0.00     0.010 C 
BRANCH   6   7
HETATM    7  C   UNL     1      28.112  13.539 -22.872  1.00  0.00     0.001 C 
BRANCH   7   8
HETATM    8  C   UNL     1      27.158  12.666 -22.047  1.00  0.00     0.000 C 
BRANCH   8   9
HETATM    9  C   UNL     1      25.697  12.938 -22.426  1.00  0.00     0.000 C 
BRANCH   9  10
HETATM   10  C   UNL     1      24.766  11.883 -21.817  1.00  0.00     0.000 C 
BRANCH  10  11
HETATM   11  C   UNL     1      25.184  11.543 -20.382  1.00  0.00     0.000 C 
BRANCH  11  12
HETATM   12  C   UNL     1      24.052  11.843 -19.392  1.00  0.00     0.000 C 
BRANCH  12  13
HETATM   13  C   UNL     1      24.608  12.370 -18.064  1.00  0.00     0.000 C 
BRANCH  13  14
HETATM   14  C   UNL     1      25.169  11.226 -17.210  1.00  0.00     0.000 C 
BRANCH  14  15
HETATM   15  C   UNL     1      25.442  11.692 -15.775  1.00  0.00     0.000 C 
BRANCH  15  16
HETATM   16  C   UNL     1      24.154  12.177 -15.100  1.00  0.00     0.000 C 
BRANCH  16  17
HETATM   17  C   UNL     1      23.985  11.540 -13.716  1.00  0.00    -0.000 C 
BRANCH  17  18
HETATM   18  C   UNL     1      25.345  11.302 -13.050  1.00  0.00    -0.005 C 
HETATM   19  C   UNL     1      25.207  11.217 -11.532  1.00  0.00     0.005 C 
ENDBRANCH  17  18
ENDBRANCH  16  17
ENDBRANCH  15  16
ENDBRANCH  14  15
ENDBRANCH  13  14
ENDBRANCH  12  13
ENDBRANCH  11  12
ENDBRANCH  10  11
ENDBRANCH   9  10
ENDBRANCH   8   9
ENDBRANCH   7   8
ENDBRANCH   6   7
ENDBRANCH   5   6
ENDBRANCH   3   5
ENDBRANCH   1   3
TORSDOF 15
ENDMDL
MODEL 15
REMARK VINA RESULT:      -4.6      2.813      5.365
REMARK  15 active torsions:
REMARK  status: ('A' for Active; 'I' for Inactive)
REMARK    1  A    between atoms: O_1  and  C_18 
REMARK    2  A    between atoms: C_3  and  C_4 
REMARK    3  A    between atoms: C_3  and  C_5 
REMARK    4  A    between atoms: C_4  and  C_6 
REMARK    5  A    between atoms: C_5  and  C_7 
REMARK    6  A    between atoms: C_6  and  C_8 
REMARK    7  A    between atoms: C_7  and  C_9 
REMARK    8  A    between atoms: C_8  and  C_10 
REMARK    9  A    between atoms: C_9  and  C_11 
REMARK   10  A    between atoms: C_10  and  C_12 
REMARK   11  A    between atoms: C_11  and  C_13 
REMARK   12  A    between atoms: C_12  and  C_14 
REMARK   13  A    between atoms: C_13  and  C_15 
REMARK   14  A    between atoms: C_14  and  C_16 
REMARK   15  A    between atoms: C_16  and  C_18 
ROOT
HETATM    1  O   UNL     1      28.776  10.464  -9.262  1.00  0.00    -0.776 OA
HETATM    2  H   UNL     1      28.892   9.554  -9.570  1.00  0.00     0.167 HD
ENDROOT
BRANCH   1   3
HETATM    3  C   UNL     1      27.980  11.333  -9.920  1.00  0.00     0.139 C 
HETATM    4  O   UNL     1      27.930  12.501  -9.562  1.00  0.00    -0.650 OA
BRANCH   3   5
HETATM    5  C   UNL     1      27.167  10.839 -11.088  1.00  0.00     0.110 C 
BRANCH   5   6
HETATM    6  C   UNL     1      25.701  11.297 -11.040  1.00  0.00     0.010 C 
BRANCH   6   7
HETATM    7  C   UNL     1      25.024  11.116 -12.403  1.00  0.00     0.001 C 
BRANCH   7   8
HETATM    8  C   UNL     1      24.323  12.407 -12.845  1.00  0.00     0.000 C 
BRANCH   8   9
HETATM    9  C   UNL     1      23.653  12.229 -14.212  1.00  0.00     0.000 C 
BRANCH   9  10
HETATM   10  C   UNL     1      24.463  11.280 -15.103  1.00  0.00     0.000 C 
BRANCH  10  11
HETATM   11  C   UNL     1      24.847  11.959 -16.423  1.00  0.00     0.000 C 
BRANCH  11  12
HETATM   12  C   UNL     1      25.985  11.204 -17.120  1.00  0.00     0.000 C 
BRANCH  12  13
HETATM   13  C   UNL     1      27.351  11.760 -16.702  1.00  0.00     0.000 C 
BRANCH  13  14
HETATM   14  C   UNL     1      28.000  10.877 -15.629  1.00  0.00     0.000 C 
BRANCH  14  15
HETATM   15  C   UNL     1      28.249  11.670 -14.340  1.00  0.00     0.000 C 
BRANCH  15  16
HETATM   16  C   UNL     1      27.607  13.060 -14.417  1.00  0.00     0.000 C 
BRANCH  16  17
HETATM   17  C   UNL     1      27.832  13.843 -13.118  1.00  0.00    -0.000 C 
BRANCH  17  18
HETATM   18  C   UNL     1      28.800  15.011 -13.339  1.00  0.00    -0.005 C 
HETATM   19  C   UNL     1      29.547  15.358 -12.054  1.00  0.00     0.005 C 
ENDBRANCH  17  18
ENDBRANCH  16  17
ENDBRANCH  15  16
ENDBRANCH  14  15
ENDBRANCH  13  14
ENDBRANCH  12  13
ENDBRANCH  11  12
ENDBRANCH  10  11
ENDBRANCH   9  10
ENDBRANCH   8   9
ENDBRANCH   7   8
ENDBRANCH   6   7
ENDBRANCH   5   6
ENDBRANCH   3   5
ENDBRANCH   1   3
TORSDOF 15
ENDMDL
MODEL 16
REMARK VINA RESULT:      -4.6      4.571      9.852
REMARK  15 active torsions:
REMARK  status: ('A' for Active; 'I' for Inactive)
REMARK    1  A    between atoms: O_1  and  C_18 
REMARK    2  A    between atoms: C_3  and  C_4 
REMARK    3  A    between atoms: C_3  and  C_5 
REMARK    4  A    between atoms: C_4  and  C_6 
REMARK    5  A    between atoms: C_5  and  C_7 
REMARK    6  A    between atoms: C_6  and  C_8 
REMARK    7  A    between atoms: C_7  and  C_9 
REMARK    8  A    between atoms: C_8  and  C_10 
REMARK    9  A    between atoms: C_9  and  C_11 
REMARK   10  A    between atoms: C_10  and  C_12 
REMARK   11  A    between atoms: C_11  and  C_13 
REMARK   12  A    between atoms: C_12  and  C_14 
REMARK   13  A    between atoms: C_13  and  C_15 
REMARK   14  A    between atoms: C_14  and  C_16 
REMARK   15  A    between atoms: C_16  and  C_18 
ROOT
HETATM    1  O   UNL     1      24.774  12.495 -22.796  1.00  0.00    -0.776 OA
HETATM    2  H   UNL     1      23.886  12.181 -23.016  1.00  0.00     0.167 HD
ENDROOT
BRANCH   1   3
HETATM    3  C   UNL     1      25.608  11.765 -22.026  1.00  0.00     0.139 C 
HETATM    4  O   UNL     1      26.751  11.550 -22.405  1.00  0.00    -0.650 OA
BRANCH   3   5
HETATM    5  C   UNL     1      25.108  11.231 -20.709  1.00  0.00     0.110 C 
BRANCH   5   6
HETATM    6  C   UNL     1      24.279  12.255 -19.918  1.00  0.00     0.010 C 
BRANCH   6   7
HETATM    7  C   UNL     1      23.760  11.648 -18.610  1.00  0.00     0.001 C 
BRANCH   7   8
HETATM    8  C   UNL     1      24.563  12.163 -17.408  1.00  0.00     0.000 C 
BRANCH   8   9
HETATM    9  C   UNL     1      25.481  11.069 -16.851  1.00  0.00     0.000 C 
BRANCH   9  10
HETATM   10  C   UNL     1      25.843  11.348 -15.388  1.00  0.00     0.000 C 
BRANCH  10  11
HETATM   11  C   UNL     1      24.739  12.153 -14.692  1.00  0.00     0.000 C 
BRANCH  11  12
HETATM   12  C   UNL     1      24.413  11.563 -13.314  1.00  0.00     0.000 C 
BRANCH  12  13
HETATM   13  C   UNL     1      25.099  12.359 -12.198  1.00  0.00     0.000 C 
BRANCH  13  14
HETATM   14  C   UNL     1      24.502  12.012 -10.829  1.00  0.00     0.000 C 
BRANCH  14  15
HETATM   15  C   UNL     1      25.585  12.007  -9.742  1.00  0.00     0.000 C 
BRANCH  15  16
HETATM   16  C   UNL     1      26.894  12.608 -10.267  1.00  0.00     0.000 C 
BRANCH  16  17
HETATM   17  C   UNL     1      28.061  11.631 -10.080  1.00  0.00    -0.000 C 
BRANCH  17  18
HETATM   18  C   UNL     1      29.370  12.383  -9.817  1.00  0.00    -0.005 C 
HETATM   19  C   UNL     1      30.475  11.912 -10.759  1.00  0.00     0.005 C 
ENDBRANCH  17  18
ENDBRANCH  16  17
ENDBRANCH  15  16
ENDBRANCH  14  15
ENDBRANCH  13  14
ENDBRANCH  12  13
ENDBRANCH  11  12
ENDBRANCH  10  11
ENDBRANCH   9  10
ENDBRANCH   8   9
ENDBRANCH   7   8
ENDBRANCH   6   7
ENDBRANCH   5   6
ENDBRANCH   3   5
ENDBRANCH   1   3
TORSDOF 15
ENDMDL
MODEL 17
REMARK VINA RESULT:      -4.6      2.534      5.612
REMARK  15 active torsions:
REMARK  status: ('A' for Active; 'I' for Inactive)
REMARK    1  A    between atoms: O_1  and  C_18 
REMARK    2  A    between atoms: C_3  and  C_4 
REMARK    3  A    between atoms: C_3  and  C_5 
REMARK    4  A    between atoms: C_4  and  C_6 
REMARK    5  A    between atoms: C_5  and  C_7 
REMARK    6  A    between atoms: C_6  and  C_8 
REMARK    7  A    between atoms: C_7  and  C_9 
REMARK    8  A    between atoms: C_8  and  C_10 
REMARK    9  A    between atoms: C_9  and  C_11 
REMARK   10  A    between atoms: C_10  and  C_12 
REMARK   11  A    between atoms: C_11  and  C_13 
REMARK   12  A    between atoms: C_12  and  C_14 
REMARK   13  A    between atoms: C_13  and  C_15 
REMARK   14  A    between atoms: C_14  and  C_16 
REMARK   15  A    between atoms: C_16  and  C_18 
ROOT
HETATM    1  O   UNL     1      24.214  12.726 -12.618  1.00  0.00    -0.776 OA
HETATM    2  H   UNL     1      24.025  13.558 -12.162  1.00  0.00     0.167 HD
ENDROOT
BRANCH   1   3
HETATM    3  C   UNL     1      25.480  12.345 -12.892  1.00  0.00     0.139 C 
HETATM    4  O   UNL     1      26.284  12.212 -11.981  1.00  0.00    -0.650 OA
BRANCH   3   5
HETATM    5  C   UNL     1      25.873  12.092 -14.325  1.00  0.00     0.110 C 
BRANCH   5   6
HETATM    6  C   UNL     1      24.677  11.747 -15.226  1.00  0.00     0.010 C 
BRANCH   6   7
HETATM    7  C   UNL     1      25.148  11.234 -16.591  1.00  0.00     0.001 C 
BRANCH   7   8
HETATM    8  C   UNL     1      24.908  12.282 -17.685  1.00  0.00     0.000 C 
BRANCH   8   9
HETATM    9  C   UNL     1      23.778  11.847 -18.626  1.00  0.00     0.000 C 
BRANCH   9  10
HETATM   10  C   UNL     1      24.133  12.146 -20.087  1.00  0.00     0.000 C 
BRANCH  10  11
HETATM   11  C   UNL     1      25.584  11.756 -20.391  1.00  0.00     0.000 C 
BRANCH  11  12
HETATM   12  C   UNL     1      25.656  10.772 -21.564  1.00  0.00     0.000 C 
BRANCH  12  13
HETATM   13  C   UNL     1      24.879  11.300 -22.775  1.00  0.00     0.000 C 
BRANCH  13  14
HETATM   14  C   UNL     1      25.824  11.940 -23.799  1.00  0.00     0.000 C 
BRANCH  14  15
HETATM   15  C   UNL     1      25.087  12.253 -25.107  1.00  0.00     0.000 C 
BRANCH  15  16
HETATM   16  C   UNL     1      25.246  11.109 -26.115  1.00  0.00     0.000 C 
BRANCH  16  17
HETATM   17  C   UNL     1      26.271  11.467 -27.197  1.00  0.00    -0.000 C 
BRANCH  17  18
HETATM   18  C   UNL     1      26.764  12.909 -27.032  1.00  0.00    -0.005 C 
HETATM   19  C   UNL     1      28.287  12.964 -26.949  1.00  0.00     0.005 C 
ENDBRANCH  17  18
ENDBRANCH  16  17
ENDBRANCH  15  16
ENDBRANCH  14  15
ENDBRANCH  13  14
ENDBRANCH  12  13
ENDBRANCH  11  12
ENDBRANCH  10  11
ENDBRANCH   9  10
ENDBRANCH   8   9
ENDBRANCH   7   8
ENDBRANCH   6   7
ENDBRANCH   5   6
ENDBRANCH   3   5
ENDBRANCH   1   3
TORSDOF 15
ENDMDL
MODEL 18
REMARK VINA RESULT:      -4.6      2.042      2.617
REMARK  15 active torsions:
REMARK  status: ('A' for Active; 'I' for Inactive)
REMARK    1  A    between atoms: O_1  and  C_18 
REMARK    2  A    between atoms: C_3  and  C_4 
REMARK    3  A    between atoms: C_3  and  C_5 
REMARK    4  A    between atoms: C_4  and  C_6 
REMARK    5  A    between atoms: C_5  and  C_7 
REMARK    6  A    between atoms: C_6  and  C_8 
REMARK    7  A    between atoms: C_7  and  C_9 
REMARK    8  A    between atoms: C_8  and  C_10 
REMARK    9  A    between atoms: C_9  and  C_11 
REMARK   10  A    between atoms: C_10  and  C_12 
REMARK   11  A    between atoms: C_11  and  C_13 
REMARK   12  A    between atoms: C_12  and  C_14 
REMARK   13  A    between atoms: C_13  and  C_15 
REMARK   14  A    between atoms: C_14  and  C_16 
REMARK   15  A    between atoms: C_16  and  C_18 
ROOT
HETATM    1  O   UNL     1      27.379  12.511  -8.244  1.00  0.00    -0.776 OA
HETATM    2  H   UNL     1      28.138  12.352  -8.822  1.00  0.00     0.167 HD
ENDROOT
BRANCH   1   3
HETATM    3  C   UNL     1      26.293  11.710  -8.272  1.00  0.00     0.139 C 
HETATM    4  O   UNL     1      26.213  10.767  -7.498  1.00  0.00    -0.650 OA
BRANCH   3   5
HETATM    5  C   UNL     1      25.196  12.001  -9.264  1.00  0.00     0.110 C 
BRANCH   5   6
HETATM    6  C   UNL     1      25.665  11.912 -10.725  1.00  0.00     0.010 C 
BRANCH   6   7
HETATM    7  C   UNL     1      24.505  12.171 -11.691  1.00  0.00     0.001 C 
BRANCH   7   8
HETATM    8  C   UNL     1      24.850  11.694 -13.107  1.00  0.00     0.000 C 
BRANCH   8   9
HETATM    9  C   UNL     1      23.637  11.807 -14.038  1.00  0.00     0.000 C 
BRANCH   9  10
HETATM   10  C   UNL     1      24.053  12.308 -15.426  1.00  0.00     0.000 C 
BRANCH  10  11
HETATM   11  C   UNL     1      25.366  11.656 -15.875  1.00  0.00     0.000 C 
BRANCH  11  12
HETATM   12  C   UNL     1      25.161  10.824 -17.147  1.00  0.00     0.000 C 
BRANCH  12  13
HETATM   13  C   UNL     1      24.399  11.623 -18.211  1.00  0.00     0.000 C 
BRANCH  13  14
HETATM   14  C   UNL     1      25.199  11.701 -19.517  1.00  0.00     0.000 C 
BRANCH  14  15
HETATM   15  C   UNL     1      26.525  12.444 -19.307  1.00  0.00     0.000 C 
BRANCH  15  16
HETATM   16  C   UNL     1      27.092  12.944 -20.641  1.00  0.00     0.000 C 
BRANCH  16  17
HETATM   17  C   UNL     1      28.127  14.052 -20.418  1.00  0.00    -0.000 C 
BRANCH  17  18
HETATM   18  C   UNL     1      29.442  13.730 -21.137  1.00  0.00    -0.005 C 
HETATM   19  C   UNL     1      29.209  12.784 -22.311  1.00  0.00     0.005 C 
ENDBRANCH  17  18
ENDBRANCH  16  17
ENDBRANCH  15  16
ENDBRANCH  14  15
ENDBRANCH  13  14
ENDBRANCH  12  13
ENDBRANCH  11  12
ENDBRANCH  10  11
ENDBRANCH   9  10
ENDBRANCH   8   9
ENDBRANCH   7   8
ENDBRANCH   6   7
ENDBRANCH   5   6
ENDBRANCH   3   5
ENDBRANCH   1   3
TORSDOF 15
ENDMDL
MODEL 19
REMARK VINA RESULT:      -4.6      5.103     12.568
REMARK  15 active torsions:
REMARK  status: ('A' for Active; 'I' for Inactive)
REMARK    1  A    between atoms: O_1  and  C_18 
REMARK    2  A    between atoms: C_3  and  C_4 
REMARK    3  A    between atoms: C_3  and  C_5 
REMARK    4  A    between atoms: C_4  and  C_6 
REMARK    5  A    between atoms: C_5  and  C_7 
REMARK    6  A    between atoms: C_6  and  C_8 
REMARK    7  A    between atoms: C_7  and  C_9 
REMARK    8  A    between atoms: C_8  and  C_10 
REMARK    9  A    between atoms: C_9  and  C_11 
REMARK   10  A    between atoms: C_10  and  C_12 
REMARK   11  A    between atoms: C_11  and  C_13 
REMARK   12  A    between atoms: C_12  and  C_14 
REMARK   13  A    between atoms: C_13  and  C_15 
REMARK   14  A    between atoms: C_14  and  C_16 
REMARK   15  A    between atoms: C_16  and  C_18 
ROOT
HETATM    1  O   UNL     1      25.074  13.031 -13.171  1.00  0.00    -0.776 OA
HETATM    2  H   UNL     1      25.357  13.507 -12.378  1.00  0.00     0.167 HD
ENDROOT
BRANCH   1   3
HETATM    3  C   UNL     1      24.804  11.709 -13.142  1.00  0.00     0.139 C 
HETATM    4  O   UNL     1      24.151  11.203 -14.043  1.00  0.00    -0.650 OA
BRANCH   3   5
HETATM    5  C   UNL     1      25.319  10.884 -11.991  1.00  0.00     0.110 C 
BRANCH   5   6
HETATM    6  C   UNL     1      25.557  11.709 -10.717  1.00  0.00     0.010 C 
BRANCH   6   7
HETATM    7  C   UNL     1      24.232  12.208 -10.130  1.00  0.00     0.001 C 
BRANCH   7   8
HETATM    8  C   UNL     1      23.837  11.392  -8.892  1.00  0.00     0.000 C 
BRANCH   8   9
HETATM    9  C   UNL     1      24.532  11.929  -7.635  1.00  0.00     0.000 C 
BRANCH   9  10
HETATM   10  C   UNL     1      25.819  11.150  -7.343  1.00  0.00     0.000 C 
BRANCH  10  11
HETATM   11  C   UNL     1      26.065  11.039  -5.833  1.00  0.00     0.000 C 
BRANCH  11  12
HETATM   12  C   UNL     1      25.790  12.374  -5.131  1.00  0.00     0.000 C 
BRANCH  12  13
HETATM   13  C   UNL     1      25.003  12.161  -3.833  1.00  0.00     0.000 C 
BRANCH  13  14
HETATM   14  C   UNL     1      23.568  11.707  -4.128  1.00  0.00     0.000 C 
BRANCH  14  15
HETATM   15  C   UNL     1      23.089  10.685  -3.091  1.00  0.00     0.000 C 
BRANCH  15  16
HETATM   16  C   UNL     1      23.547  11.076  -1.681  1.00  0.00     0.000 C 
BRANCH  16  17
HETATM   17  C   UNL     1      22.549  12.038  -1.026  1.00  0.00    -0.000 C 
BRANCH  17  18
HETATM   18  C   UNL     1      21.115  11.508  -1.144  1.00  0.00    -0.005 C 
HETATM   19  C   UNL     1      20.719  10.711   0.096  1.00  0.00     0.005 C 
ENDBRANCH  17  18
ENDBRANCH  16  17
ENDBRANCH  15  16
ENDBRANCH  14  15
ENDBRANCH  13  14
ENDBRANCH  12  13
ENDBRANCH  11  12
ENDBRANCH  10  11
ENDBRANCH   9  10
ENDBRANCH   8   9
ENDBRANCH   7   8
ENDBRANCH   6   7
ENDBRANCH   5   6
ENDBRANCH   3   5
ENDBRANCH   1   3
TORSDOF 15
ENDMDL
MODEL 20
REMARK VINA RESULT:      -4.5      2.615      3.286
REMARK  15 active torsions:
REMARK  status: ('A' for Active; 'I' for Inactive)
REMARK    1  A    between atoms: O_1  and  C_18 
REMARK    2  A    between atoms: C_3  and  C_4 
REMARK    3  A    between atoms: C_3  and  C_5 
REMARK    4  A    between atoms: C_4  and  C_6 
REMARK    5  A    between atoms: C_5  and  C_7 
REMARK    6  A    between atoms: C_6  and  C_8 
REMARK    7  A    between atoms: C_7  and  C_9 
REMARK    8  A    between atoms: C_8  and  C_10 
REMARK    9  A    between atoms: C_9  and  C_11 
REMARK   10  A    between atoms: C_10  and  C_12 
REMARK   11  A    between atoms: C_11  and  C_13 
REMARK   12  A    between atoms: C_12  and  C_14 
REMARK   13  A    between atoms: C_13  and  C_15 
REMARK   14  A    between atoms: C_14  and  C_16 
REMARK   15  A    between atoms: C_16  and  C_18 
ROOT
HETATM    1  O   UNL     1      31.521   9.772 -12.711  1.00  0.00    -0.776 OA
HETATM    2  H   UNL     1      31.868   9.260 -11.967  1.00  0.00     0.167 HD
ENDROOT
BRANCH   1   3
HETATM    3  C   UNL     1      30.441  10.570 -12.574  1.00  0.00     0.139 C 
HETATM    4  O   UNL     1      29.996  11.162 -13.547  1.00  0.00    -0.650 OA
BRANCH   3   5
HETATM    5  C   UNL     1      29.806  10.713 -11.215  1.00  0.00     0.110 C 
BRANCH   5   6
HETATM    6  C   UNL     1      28.593  11.656 -11.213  1.00  0.00     0.010 C 
BRANCH   6   7
HETATM    7  C   UNL     1      27.333  10.930 -10.728  1.00  0.00     0.001 C 
BRANCH   7   8
HETATM    8  C   UNL     1      26.249  11.930 -10.307  1.00  0.00     0.000 C 
BRANCH   8   9
HETATM    9  C   UNL     1      24.964  11.722 -11.117  1.00  0.00     0.000 C 
BRANCH   9  10
HETATM   10  C   UNL     1      25.150  12.176 -12.569  1.00  0.00     0.000 C 
BRANCH  10  11
HETATM   11  C   UNL     1      23.797  12.318 -13.278  1.00  0.00     0.000 C 
BRANCH  11  12
HETATM   12  C   UNL     1      23.925  12.009 -14.774  1.00  0.00     0.000 C 
BRANCH  12  13
HETATM   13  C   UNL     1      25.389  11.782 -15.167  1.00  0.00     0.000 C 
BRANCH  13  14
HETATM   14  C   UNL     1      25.498  11.262 -16.606  1.00  0.00     0.000 C 
BRANCH  14  15
HETATM   15  C   UNL     1      24.787  12.203 -17.587  1.00  0.00     0.000 C 
BRANCH  15  16
HETATM   16  C   UNL     1      24.121  11.414 -18.720  1.00  0.00     0.000 C 
BRANCH  16  17
HETATM   17  C   UNL     1      24.247  12.157 -20.056  1.00  0.00    -0.000 C 
BRANCH  17  18
HETATM   18  C   UNL     1      25.052  11.335 -21.069  1.00  0.00    -0.005 C 
HETATM   19  C   UNL     1      25.810  12.241 -22.035  1.00  0.00     0.005 C 
ENDBRANCH  17  18
ENDBRANCH  16  17
ENDBRANCH  15  16
ENDBRANCH  14  15
ENDBRANCH  13  14
ENDBRANCH  12  13
ENDBRANCH  11  12
ENDBRANCH  10  11
ENDBRANCH   9  10
ENDBRANCH   8   9
ENDBRANCH   7   8
ENDBRANCH   6   7
ENDBRANCH   5   6
ENDBRANCH   3   5
ENDBRANCH   1   3
TORSDOF 15
ENDMDL
