MODEL 1
REMARK VINA RESULT:     -10.1      0.000      0.000
REMARK  5 active torsions:
REMARK  status: ('A' for Active; 'I' for Inactive)
REMARK    1  A    between atoms: S_3  and  O_4 
REMARK    2  A    between atoms: S_3  and  C_15 
REMARK    3  A    between atoms: N_9  and  C_30 
REMARK    4  A    between atoms: C_11  and  C_13 
REMARK    5  A    between atoms: C_18  and  C_25 
ROOT
HETATM    1  S   UNL     1     119.716 158.697 -27.703  1.00  0.00    -0.068 SA
HETATM    2  N   UNL     1     117.260 158.266 -27.312  1.00  0.00    -0.344 N 
HETATM    3  C   UNL     1     117.591 159.413 -26.632  1.00  0.00     0.053 A 
HETATM    4  C   UNL     1     118.352 157.721 -27.946  1.00  0.00     0.087 A 
HETATM    5  C   UNL     1     118.920 159.805 -26.737  1.00  0.00     0.057 A 
HETATM    6  C   UNL     1     119.426 160.955 -26.113  1.00  0.00     0.097 A 
HETATM    7  C   UNL     1     118.527 161.740 -25.346  1.00  0.00    -0.037 A 
HETATM    8  C   UNL     1     116.703 160.196 -25.879  1.00  0.00     0.031 A 
HETATM    9  C   UNL     1     115.873 157.784 -27.364  1.00  0.00     0.157 C 
HETATM   10  C   UNL     1     117.174 161.348 -25.240  1.00  0.00     0.011 A 
HETATM   11  C   UNL     1     118.981 162.989 -24.638  1.00  0.00     0.050 C 
ENDROOT
BRANCH   4  12
HETATM   12  C   UNL     1     118.439 156.445 -28.724  1.00  0.00    -0.001 A 
HETATM   13  C   UNL     1     117.297 155.756 -29.195  1.00  0.00     0.035 A 
HETATM   14  C   UNL     1     117.467 154.561 -29.888  1.00  0.00     0.034 A 
HETATM   15  S   UNL     1     116.289 153.580 -30.545  1.00  0.00    -0.069 SA
HETATM   16  C   UNL     1     118.709 154.005 -30.132  1.00  0.00     0.052 A 
HETATM   17  C   UNL     1     117.401 152.433 -31.123  1.00  0.00     0.087 A 
HETATM   18  N   UNL     1     118.690 152.827 -30.837  1.00  0.00    -0.344 N 
HETATM   19  C   UNL     1     119.935 152.164 -31.248  1.00  0.00     0.157 C 
HETATM   20  C   UNL     1     119.855 154.663 -29.665  1.00  0.00     0.032 A 
HETATM   21  C   UNL     1     119.713 155.868 -28.957  1.00  0.00     0.016 A 
BRANCH  17  22
HETATM   22  C   UNL     1     116.940 151.180 -31.801  1.00  0.00    -0.002 A 
HETATM   23  C   UNL     1     117.129 150.937 -33.174  1.00  0.00     0.016 A 
HETATM   24  C   UNL     1     116.704 149.743 -33.761  1.00  0.00     0.030 A 
HETATM   25  C   UNL     1     116.078 148.733 -32.998  1.00  0.00     0.029 A 
HETATM   26  C   UNL     1     115.911 148.971 -31.617  1.00  0.00     0.030 A 
HETATM   27  C   UNL     1     116.340 150.165 -31.033  1.00  0.00     0.016 A 
BRANCH  25  28
HETATM   28  N   UNL     1     115.638 147.499 -33.604  1.00  0.00    -0.390 N 
HETATM   29  C   UNL     1     116.278 146.996 -34.814  1.00  0.00     0.149 C 
HETATM   30  C   UNL     1     114.546 146.732 -33.019  1.00  0.00     0.149 C 
ENDBRANCH  25  28
ENDBRANCH  17  22
ENDBRANCH   4  12
BRANCH   6  31
HETATM   31  S   UNL     1     121.169 161.404 -26.291  1.00  0.00     0.131 S 
HETATM   32  O   UNL     1     121.937 160.438 -27.208  1.00  0.00    -0.598 OA
HETATM   33  O   UNL     1     121.332 162.726 -27.055  1.00  0.00    -0.598 OA
BRANCH  31  34
HETATM   34  O   UNL     1     122.164 161.593 -24.903  1.00  0.00    -0.292 OA
HETATM   35  H   UNL     1     122.831 162.281 -25.156  1.00  0.00     0.232 HD
ENDBRANCH  31  34
ENDBRANCH   6  31
TORSDOF 5
ENDMDL
MODEL 2
REMARK VINA RESULT:     -10.1      5.450      9.842
REMARK  5 active torsions:
REMARK  status: ('A' for Active; 'I' for Inactive)
REMARK    1  A    between atoms: S_3  and  O_4 
REMARK    2  A    between atoms: S_3  and  C_15 
REMARK    3  A    between atoms: N_9  and  C_30 
REMARK    4  A    between atoms: C_11  and  C_13 
REMARK    5  A    between atoms: C_18  and  C_25 
ROOT
HETATM    1  S   UNL     1     117.987 150.055 -32.075  1.00  0.00    -0.068 SA
HETATM    2  N   UNL     1     115.502 149.692 -31.824  1.00  0.00    -0.344 N 
HETATM    3  C   UNL     1     115.821 150.843 -31.144  1.00  0.00     0.053 A 
HETATM    4  C   UNL     1     116.615 149.109 -32.382  1.00  0.00     0.087 A 
HETATM    5  C   UNL     1     117.164 151.200 -31.176  1.00  0.00     0.057 A 
HETATM    6  C   UNL     1     117.662 152.348 -30.543  1.00  0.00     0.097 A 
HETATM    7  C   UNL     1     116.739 153.169 -29.844  1.00  0.00    -0.037 A 
HETATM    8  C   UNL     1     114.911 151.661 -30.458  1.00  0.00     0.031 A 
HETATM    9  C   UNL     1     114.108 149.243 -31.949  1.00  0.00     0.157 C 
HETATM   10  C   UNL     1     115.373 152.813 -29.812  1.00  0.00     0.011 A 
HETATM   11  C   UNL     1     117.182 154.419 -29.131  1.00  0.00     0.050 C 
ENDROOT
BRANCH   4  12
HETATM   12  C   UNL     1     116.715 147.817 -33.132  1.00  0.00    -0.001 A 
HETATM   13  C   UNL     1     115.587 147.153 -33.667  1.00  0.00     0.035 A 
HETATM   14  C   UNL     1     115.767 145.941 -34.327  1.00  0.00     0.034 A 
HETATM   15  S   UNL     1     114.606 144.983 -35.046  1.00  0.00    -0.069 SA
HETATM   16  C   UNL     1     117.004 145.345 -34.480  1.00  0.00     0.052 A 
HETATM   17  C   UNL     1     115.719 143.794 -35.530  1.00  0.00     0.087 A 
HETATM   18  N   UNL     1     116.996 144.156 -35.166  1.00  0.00    -0.344 N 
HETATM   19  C   UNL     1     118.246 143.451 -35.483  1.00  0.00     0.157 C 
HETATM   20  C   UNL     1     118.136 145.979 -33.949  1.00  0.00     0.032 A 
HETATM   21  C   UNL     1     117.984 147.199 -33.270  1.00  0.00     0.016 A 
BRANCH  17  22
HETATM   22  C   UNL     1     115.266 142.543 -36.218  1.00  0.00    -0.002 A 
HETATM   23  C   UNL     1     115.492 142.294 -37.583  1.00  0.00     0.016 A 
HETATM   24  C   UNL     1     115.073 141.101 -38.179  1.00  0.00     0.030 A 
HETATM   25  C   UNL     1     114.417 140.100 -37.431  1.00  0.00     0.029 A 
HETATM   26  C   UNL     1     114.213 140.344 -36.056  1.00  0.00     0.030 A 
HETATM   27  C   UNL     1     114.636 141.536 -35.464  1.00  0.00     0.016 A 
BRANCH  25  28
HETATM   28  N   UNL     1     113.984 138.867 -38.045  1.00  0.00    -0.390 N 
HETATM   29  C   UNL     1     114.664 138.347 -39.225  1.00  0.00     0.149 C 
HETATM   30  C   UNL     1     112.858 138.121 -37.500  1.00  0.00     0.149 C 
ENDBRANCH  25  28
ENDBRANCH  17  22
ENDBRANCH   4  12
BRANCH   6  31
HETATM   31  S   UNL     1     119.423 152.750 -30.624  1.00  0.00     0.131 S 
HETATM   32  O   UNL     1     120.212 151.773 -31.511  1.00  0.00    -0.598 OA
HETATM   33  O   UNL     1     119.662 154.075 -31.364  1.00  0.00    -0.598 OA
BRANCH  31  34
HETATM   34  O   UNL     1     120.349 152.899 -29.184  1.00  0.00    -0.292 OA
HETATM   35  H   UNL     1     121.294 152.867 -29.481  1.00  0.00     0.232 HD
ENDBRANCH  31  34
ENDBRANCH   6  31
TORSDOF 5
ENDMDL
MODEL 3
REMARK VINA RESULT:     -10.1      2.621      5.044
REMARK  5 active torsions:
REMARK  status: ('A' for Active; 'I' for Inactive)
REMARK    1  A    between atoms: S_3  and  O_4 
REMARK    2  A    between atoms: S_3  and  C_15 
REMARK    3  A    between atoms: N_9  and  C_30 
REMARK    4  A    between atoms: C_11  and  C_13 
REMARK    5  A    between atoms: C_18  and  C_25 
ROOT
HETATM    1  S   UNL     1     118.876 154.312 -29.947  1.00  0.00    -0.068 SA
HETATM    2  N   UNL     1     116.410 153.887 -29.615  1.00  0.00    -0.344 N 
HETATM    3  C   UNL     1     116.726 155.036 -28.931  1.00  0.00     0.053 A 
HETATM    4  C   UNL     1     117.516 153.338 -30.220  1.00  0.00     0.087 A 
HETATM    5  C   UNL     1     118.058 155.425 -29.005  1.00  0.00     0.057 A 
HETATM    6  C   UNL     1     118.551 156.576 -28.372  1.00  0.00     0.097 A 
HETATM    7  C   UNL     1     117.635 157.366 -27.630  1.00  0.00    -0.037 A 
HETATM    8  C   UNL     1     115.822 155.823 -28.203  1.00  0.00     0.031 A 
HETATM    9  C   UNL     1     115.023 153.407 -29.699  1.00  0.00     0.157 C 
HETATM   10  C   UNL     1     116.279 156.977 -27.557  1.00  0.00     0.011 A 
HETATM   11  C   UNL     1     118.073 158.616 -26.916  1.00  0.00     0.050 C 
ENDROOT
BRANCH   4  12
HETATM   12  C   UNL     1     117.620 152.059 -30.991  1.00  0.00    -0.001 A 
HETATM   13  C   UNL     1     116.492 151.391 -31.521  1.00  0.00     0.035 A 
HETATM   14  C   UNL     1     116.675 150.192 -32.203  1.00  0.00     0.034 A 
HETATM   15  S   UNL     1     115.515 149.232 -32.922  1.00  0.00    -0.069 SA
HETATM   16  C   UNL     1     117.917 149.611 -32.381  1.00  0.00     0.052 A 
HETATM   17  C   UNL     1     116.634 148.063 -33.438  1.00  0.00     0.087 A 
HETATM   18  N   UNL     1     117.913 148.433 -33.085  1.00  0.00    -0.344 N 
HETATM   19  C   UNL     1     119.166 147.746 -33.428  1.00  0.00     0.157 C 
HETATM   20  C   UNL     1     119.049 150.248 -31.854  1.00  0.00     0.032 A 
HETATM   21  C   UNL     1     118.893 151.457 -31.155  1.00  0.00     0.016 A 
BRANCH  17  22
HETATM   22  C   UNL     1     116.186 146.818 -34.139  1.00  0.00    -0.002 A 
HETATM   23  C   UNL     1     116.271 146.649 -35.533  1.00  0.00     0.016 A 
HETATM   24  C   UNL     1     115.863 145.461 -36.143  1.00  0.00     0.030 A 
HETATM   25  C   UNL     1     115.359 144.383 -35.383  1.00  0.00     0.029 A 
HETATM   26  C   UNL     1     115.296 144.547 -33.984  1.00  0.00     0.030 A 
HETATM   27  C   UNL     1     115.709 145.736 -33.377  1.00  0.00     0.016 A 
BRANCH  25  28
HETATM   28  N   UNL     1     114.937 143.154 -36.013  1.00  0.00    -0.390 N 
HETATM   29  C   UNL     1     113.858 142.358 -35.441  1.00  0.00     0.149 C 
HETATM   30  C   UNL     1     115.583 142.685 -37.233  1.00  0.00     0.149 C 
ENDBRANCH  25  28
ENDBRANCH  17  22
ENDBRANCH   4  12
BRANCH   6  31
HETATM   31  S   UNL     1     120.299 157.021 -28.509  1.00  0.00     0.131 S 
HETATM   32  O   UNL     1     121.088 156.047 -29.398  1.00  0.00    -0.598 OA
HETATM   33  O   UNL     1     120.483 158.337 -29.280  1.00  0.00    -0.598 OA
BRANCH  31  34
HETATM   34  O   UNL     1     121.258 157.221 -27.097  1.00  0.00    -0.292 OA
HETATM   35  H   UNL     1     122.181 156.992 -27.378  1.00  0.00     0.232 HD
ENDBRANCH  31  34
ENDBRANCH   6  31
TORSDOF 5
ENDMDL
MODEL 4
REMARK VINA RESULT:     -10.0      2.501      4.812
REMARK  5 active torsions:
REMARK  status: ('A' for Active; 'I' for Inactive)
REMARK    1  A    between atoms: S_3  and  O_4 
REMARK    2  A    between atoms: S_3  and  C_15 
REMARK    3  A    between atoms: N_9  and  C_30 
REMARK    4  A    between atoms: C_11  and  C_13 
REMARK    5  A    between atoms: C_18  and  C_25 
ROOT
HETATM    1  S   UNL     1     120.688 162.884 -25.616  1.00  0.00    -0.068 SA
HETATM    2  N   UNL     1     118.254 162.396 -25.159  1.00  0.00    -0.344 N 
HETATM    3  C   UNL     1     118.580 163.543 -24.475  1.00  0.00     0.053 A 
HETATM    4  C   UNL     1     119.338 161.882 -25.830  1.00  0.00     0.087 A 
HETATM    5  C   UNL     1     119.896 163.965 -24.615  1.00  0.00     0.057 A 
HETATM    6  C   UNL     1     120.396 165.118 -23.993  1.00  0.00     0.097 A 
HETATM    7  C   UNL     1     119.503 165.875 -23.191  1.00  0.00    -0.037 A 
HETATM    8  C   UNL     1     117.698 164.297 -23.688  1.00  0.00     0.031 A 
HETATM    9  C   UNL     1     116.876 161.884 -25.175  1.00  0.00     0.157 C 
HETATM   10  C   UNL     1     118.163 165.453 -23.050  1.00  0.00     0.011 A 
HETATM   11  C   UNL     1     119.951 167.126 -22.482  1.00  0.00     0.050 C 
ENDROOT
BRANCH   4  12
HETATM   12  C   UNL     1     119.430 160.616 -26.625  1.00  0.00    -0.001 A 
HETATM   13  C   UNL     1     118.290 159.920 -27.090  1.00  0.00     0.035 A 
HETATM   14  C   UNL     1     118.464 158.736 -27.800  1.00  0.00     0.034 A 
HETATM   15  S   UNL     1     117.289 157.750 -28.455  1.00  0.00    -0.069 SA
HETATM   16  C   UNL     1     119.708 158.196 -28.066  1.00  0.00     0.052 A 
HETATM   17  C   UNL     1     118.406 156.623 -29.060  1.00  0.00     0.087 A 
HETATM   18  N   UNL     1     119.694 157.027 -28.785  1.00  0.00    -0.344 N 
HETATM   19  C   UNL     1     120.941 156.383 -29.218  1.00  0.00     0.157 C 
HETATM   20  C   UNL     1     120.853 158.861 -27.604  1.00  0.00     0.032 A 
HETATM   21  C   UNL     1     120.707 160.055 -26.879  1.00  0.00     0.016 A 
BRANCH  17  22
HETATM   22  C   UNL     1     117.951 155.373 -29.749  1.00  0.00    -0.002 A 
HETATM   23  C   UNL     1     118.034 155.190 -31.141  1.00  0.00     0.016 A 
HETATM   24  C   UNL     1     117.619 153.998 -31.739  1.00  0.00     0.030 A 
HETATM   25  C   UNL     1     117.110 152.930 -30.968  1.00  0.00     0.029 A 
HETATM   26  C   UNL     1     117.049 153.109 -29.570  1.00  0.00     0.030 A 
HETATM   27  C   UNL     1     117.468 154.301 -28.975  1.00  0.00     0.016 A 
BRANCH  25  28
HETATM   28  N   UNL     1     116.681 151.698 -31.586  1.00  0.00    -0.390 N 
HETATM   29  C   UNL     1     115.655 150.872 -30.961  1.00  0.00     0.149 C 
HETATM   30  C   UNL     1     117.266 151.255 -32.845  1.00  0.00     0.149 C 
ENDBRANCH  25  28
ENDBRANCH  17  22
ENDBRANCH   4  12
BRANCH   6  31
HETATM   31  S   UNL     1     122.123 165.607 -24.217  1.00  0.00     0.131 S 
HETATM   32  O   UNL     1     122.893 164.647 -25.138  1.00  0.00    -0.598 OA
HETATM   33  O   UNL     1     122.236 166.922 -25.002  1.00  0.00    -0.598 OA
BRANCH  31  34
HETATM   34  O   UNL     1     123.145 165.839 -22.854  1.00  0.00    -0.292 OA
HETATM   35  H   UNL     1     123.357 164.926 -22.533  1.00  0.00     0.232 HD
ENDBRANCH  31  34
ENDBRANCH   6  31
TORSDOF 5
ENDMDL
MODEL 5
REMARK VINA RESULT:     -10.0      5.828     12.525
REMARK  5 active torsions:
REMARK  status: ('A' for Active; 'I' for Inactive)
REMARK    1  A    between atoms: S_3  and  O_4 
REMARK    2  A    between atoms: S_3  and  C_15 
REMARK    3  A    between atoms: N_9  and  C_30 
REMARK    4  A    between atoms: C_11  and  C_13 
REMARK    5  A    between atoms: C_18  and  C_25 
ROOT
HETATM    1  S   UNL     1     117.143 148.180 -32.698  1.00  0.00    -0.068 SA
HETATM    2  N   UNL     1     114.658 148.496 -32.389  1.00  0.00    -0.344 N 
HETATM    3  C   UNL     1     114.842 147.320 -33.076  1.00  0.00     0.053 A 
HETATM    4  C   UNL     1     115.855 149.119 -32.124  1.00  0.00     0.087 A 
HETATM    5  C   UNL     1     116.164 146.984 -33.337  1.00  0.00     0.057 A 
HETATM    6  C   UNL     1     116.533 145.815 -34.020  1.00  0.00     0.097 A 
HETATM    7  C   UNL     1     115.496 144.951 -34.456  1.00  0.00    -0.037 A 
HETATM    8  C   UNL     1     113.819 146.460 -33.502  1.00  0.00     0.031 A 
HETATM    9  C   UNL     1     113.319 148.930 -31.967  1.00  0.00     0.157 C 
HETATM   10  C   UNL     1     114.149 145.286 -34.189  1.00  0.00     0.011 A 
HETATM   11  C   UNL     1     115.795 143.677 -35.200  1.00  0.00     0.050 C 
ENDROOT
BRANCH   4  12
HETATM   12  C   UNL     1     116.091 150.445 -31.469  1.00  0.00    -0.001 A 
HETATM   13  C   UNL     1     117.174 151.287 -31.815  1.00  0.00     0.035 A 
HETATM   14  C   UNL     1     117.336 152.492 -31.138  1.00  0.00     0.034 A 
HETATM   15  S   UNL     1     118.515 153.648 -31.370  1.00  0.00    -0.069 SA
HETATM   16  C   UNL     1     116.488 152.906 -30.128  1.00  0.00     0.052 A 
HETATM   17  C   UNL     1     117.925 154.664 -30.143  1.00  0.00     0.087 A 
HETATM   18  N   UNL     1     116.792 154.125 -29.576  1.00  0.00    -0.344 N 
HETATM   19  C   UNL     1     115.930 154.735 -28.554  1.00  0.00     0.157 C 
HETATM   20  C   UNL     1     115.414 152.083 -29.760  1.00  0.00     0.032 A 
HETATM   21  C   UNL     1     115.230 150.857 -30.421  1.00  0.00     0.016 A 
BRANCH  17  22
HETATM   22  C   UNL     1     118.635 155.932 -29.779  1.00  0.00    -0.002 A 
HETATM   23  C   UNL     1     118.144 157.208 -30.109  1.00  0.00     0.016 A 
HETATM   24  C   UNL     1     118.827 158.366 -29.728  1.00  0.00     0.030 A 
HETATM   25  C   UNL     1     120.029 158.298 -28.991  1.00  0.00     0.029 A 
HETATM   26  C   UNL     1     120.506 157.017 -28.642  1.00  0.00     0.030 A 
HETATM   27  C   UNL     1     119.819 155.862 -29.022  1.00  0.00     0.016 A 
BRANCH  25  28
HETATM   28  N   UNL     1     120.735 159.494 -28.597  1.00  0.00    -0.390 N 
HETATM   29  C   UNL     1     122.192 159.512 -28.541  1.00  0.00     0.149 C 
HETATM   30  C   UNL     1     120.006 160.705 -28.245  1.00  0.00     0.149 C 
ENDBRANCH  25  28
ENDBRANCH  17  22
ENDBRANCH   4  12
BRANCH   6  31
HETATM   31  S   UNL     1     118.276 145.442 -34.326  1.00  0.00     0.131 S 
HETATM   32  O   UNL     1     118.708 144.099 -33.716  1.00  0.00    -0.598 OA
HETATM   33  O   UNL     1     118.540 145.186 -35.818  1.00  0.00    -0.598 OA
BRANCH  31  34
HETATM   34  O   UNL     1     119.498 146.559 -33.867  1.00  0.00    -0.292 OA
HETATM   35  H   UNL     1     119.680 146.364 -32.912  1.00  0.00     0.232 HD
ENDBRANCH  31  34
ENDBRANCH   6  31
TORSDOF 5
ENDMDL
MODEL 6
REMARK VINA RESULT:     -10.0      4.291     11.567
REMARK  5 active torsions:
REMARK  status: ('A' for Active; 'I' for Inactive)
REMARK    1  A    between atoms: S_3  and  O_4 
REMARK    2  A    between atoms: S_3  and  C_15 
REMARK    3  A    between atoms: N_9  and  C_30 
REMARK    4  A    between atoms: C_11  and  C_13 
REMARK    5  A    between atoms: C_18  and  C_25 
ROOT
HETATM    1  S   UNL     1     118.024 152.562 -30.481  1.00  0.00    -0.068 SA
HETATM    2  N   UNL     1     115.544 152.849 -30.110  1.00  0.00    -0.344 N 
HETATM    3  C   UNL     1     115.724 151.678 -30.807  1.00  0.00     0.053 A 
HETATM    4  C   UNL     1     116.740 153.484 -29.872  1.00  0.00     0.087 A 
HETATM    5  C   UNL     1     117.043 151.358 -31.101  1.00  0.00     0.057 A 
HETATM    6  C   UNL     1     117.407 150.196 -31.799  1.00  0.00     0.097 A 
HETATM    7  C   UNL     1     116.369 149.322 -32.213  1.00  0.00    -0.037 A 
HETATM    8  C   UNL     1     114.700 150.808 -31.211  1.00  0.00     0.031 A 
HETATM    9  C   UNL     1     114.211 153.267 -29.653  1.00  0.00     0.157 C 
HETATM   10  C   UNL     1     115.026 149.641 -31.911  1.00  0.00     0.011 A 
HETATM   11  C   UNL     1     116.664 148.054 -32.969  1.00  0.00     0.050 C 
ENDROOT
BRANCH   4  12
HETATM   12  C   UNL     1     116.978 154.810 -29.218  1.00  0.00    -0.001 A 
HETATM   13  C   UNL     1     118.045 155.663 -29.583  1.00  0.00     0.035 A 
HETATM   14  C   UNL     1     118.210 156.867 -28.905  1.00  0.00     0.034 A 
HETATM   15  S   UNL     1     119.373 158.036 -29.158  1.00  0.00    -0.069 SA
HETATM   16  C   UNL     1     117.380 157.270 -27.876  1.00  0.00     0.052 A 
HETATM   17  C   UNL     1     118.800 159.042 -27.915  1.00  0.00     0.087 A 
HETATM   18  N   UNL     1     117.684 158.490 -27.326  1.00  0.00    -0.344 N 
HETATM   19  C   UNL     1     116.839 159.088 -26.284  1.00  0.00     0.157 C 
HETATM   20  C   UNL     1     116.322 156.435 -27.488  1.00  0.00     0.032 A 
HETATM   21  C   UNL     1     116.135 155.211 -28.150  1.00  0.00     0.016 A 
BRANCH  17  22
HETATM   22  C   UNL     1     119.505 160.315 -27.562  1.00  0.00    -0.002 A 
HETATM   23  C   UNL     1     118.998 161.587 -27.881  1.00  0.00     0.016 A 
HETATM   24  C   UNL     1     119.678 162.750 -27.511  1.00  0.00     0.030 A 
HETATM   25  C   UNL     1     120.893 162.691 -26.794  1.00  0.00     0.029 A 
HETATM   26  C   UNL     1     121.387 161.414 -26.456  1.00  0.00     0.030 A 
HETATM   27  C   UNL     1     120.702 160.254 -26.825  1.00  0.00     0.016 A 
BRANCH  25  28
HETATM   28  N   UNL     1     121.596 163.893 -26.411  1.00  0.00    -0.390 N 
HETATM   29  C   UNL     1     120.862 165.090 -26.018  1.00  0.00     0.149 C 
HETATM   30  C   UNL     1     123.053 163.933 -26.410  1.00  0.00     0.149 C 
ENDBRANCH  25  28
ENDBRANCH  17  22
ENDBRANCH   4  12
BRANCH   6  31
HETATM   31  S   UNL     1     119.146 149.844 -32.150  1.00  0.00     0.131 S 
HETATM   32  O   UNL     1     119.613 148.512 -31.540  1.00  0.00    -0.598 OA
HETATM   33  O   UNL     1     119.373 149.577 -33.646  1.00  0.00    -0.598 OA
BRANCH  31  34
HETATM   34  O   UNL     1     120.365 150.981 -31.734  1.00  0.00    -0.292 OA
HETATM   35  H   UNL     1     120.485 151.539 -32.545  1.00  0.00     0.232 HD
ENDBRANCH  31  34
ENDBRANCH   6  31
TORSDOF 5
ENDMDL
MODEL 7
REMARK VINA RESULT:     -10.0      8.122     15.148
REMARK  5 active torsions:
REMARK  status: ('A' for Active; 'I' for Inactive)
REMARK    1  A    between atoms: S_3  and  O_4 
REMARK    2  A    between atoms: S_3  and  C_15 
REMARK    3  A    between atoms: N_9  and  C_30 
REMARK    4  A    between atoms: C_11  and  C_13 
REMARK    5  A    between atoms: C_18  and  C_25 
ROOT
HETATM    1  S   UNL     1     116.295 143.809 -34.887  1.00  0.00    -0.068 SA
HETATM    2  N   UNL     1     113.806 144.138 -34.622  1.00  0.00    -0.344 N 
HETATM    3  C   UNL     1     113.997 142.955 -35.295  1.00  0.00     0.053 A 
HETATM    4  C   UNL     1     115.001 144.759 -34.344  1.00  0.00     0.087 A 
HETATM    5  C   UNL     1     115.322 142.610 -35.530  1.00  0.00     0.057 A 
HETATM    6  C   UNL     1     115.697 141.434 -36.195  1.00  0.00     0.097 A 
HETATM    7  C   UNL     1     114.663 140.569 -36.639  1.00  0.00    -0.037 A 
HETATM    8  C   UNL     1     112.978 142.094 -35.729  1.00  0.00     0.031 A 
HETATM    9  C   UNL     1     112.462 144.583 -34.227  1.00  0.00     0.157 C 
HETATM   10  C   UNL     1     113.314 140.912 -36.398  1.00  0.00     0.011 A 
HETATM   11  C   UNL     1     114.969 139.286 -37.365  1.00  0.00     0.050 C 
ENDROOT
BRANCH   4  12
HETATM   12  C   UNL     1     115.233 146.091 -33.699  1.00  0.00    -0.001 A 
HETATM   13  C   UNL     1     116.333 146.918 -34.025  1.00  0.00     0.035 A 
HETATM   14  C   UNL     1     116.488 148.130 -33.358  1.00  0.00     0.034 A 
HETATM   15  S   UNL     1     117.685 149.272 -33.571  1.00  0.00    -0.069 SA
HETATM   16  C   UNL     1     115.616 148.564 -32.378  1.00  0.00     0.052 A 
HETATM   17  C   UNL     1     117.070 150.309 -32.374  1.00  0.00     0.087 A 
HETATM   18  N   UNL     1     115.917 149.787 -31.832  1.00  0.00    -0.344 N 
HETATM   19  C   UNL     1     115.033 150.418 -30.842  1.00  0.00     0.157 C 
HETATM   20  C   UNL     1     114.525 147.756 -32.029  1.00  0.00     0.032 A 
HETATM   21  C   UNL     1     114.347 146.524 -32.681  1.00  0.00     0.016 A 
BRANCH  17  22
HETATM   22  C   UNL     1     117.782 151.574 -32.006  1.00  0.00    -0.002 A 
HETATM   23  C   UNL     1     117.370 152.843 -32.450  1.00  0.00     0.016 A 
HETATM   24  C   UNL     1     118.050 154.001 -32.062  1.00  0.00     0.030 A 
HETATM   25  C   UNL     1     119.169 153.939 -31.203  1.00  0.00     0.029 A 
HETATM   26  C   UNL     1     119.566 152.667 -30.742  1.00  0.00     0.030 A 
HETATM   27  C   UNL     1     118.881 151.512 -31.129  1.00  0.00     0.016 A 
BRANCH  25  28
HETATM   28  N   UNL     1     119.872 155.135 -30.802  1.00  0.00    -0.390 N 
HETATM   29  C   UNL     1     121.329 155.164 -30.768  1.00  0.00     0.149 C 
HETATM   30  C   UNL     1     119.139 156.335 -30.420  1.00  0.00     0.149 C 
ENDBRANCH  25  28
ENDBRANCH  17  22
ENDBRANCH   4  12
BRANCH   6  31
HETATM   31  S   UNL     1     117.443 141.050 -36.468  1.00  0.00     0.131 S 
HETATM   32  O   UNL     1     117.868 139.730 -35.806  1.00  0.00    -0.598 OA
HETATM   33  O   UNL     1     117.724 140.740 -37.947  1.00  0.00    -0.598 OA
BRANCH  31  34
HETATM   34  O   UNL     1     118.660 142.183 -36.036  1.00  0.00    -0.292 OA
HETATM   35  H   UNL     1     118.564 142.926 -36.686  1.00  0.00     0.232 HD
ENDBRANCH  31  34
ENDBRANCH   6  31
TORSDOF 5
ENDMDL
MODEL 8
REMARK VINA RESULT:     -10.0      4.007     12.608
REMARK  5 active torsions:
REMARK  status: ('A' for Active; 'I' for Inactive)
REMARK    1  A    between atoms: S_3  and  O_4 
REMARK    2  A    between atoms: S_3  and  C_15 
REMARK    3  A    between atoms: N_9  and  C_30 
REMARK    4  A    between atoms: C_11  and  C_13 
REMARK    5  A    between atoms: C_18  and  C_25 
ROOT
HETATM    1  S   UNL     1     119.035 156.864 -28.441  1.00  0.00    -0.068 SA
HETATM    2  N   UNL     1     116.576 156.993 -27.883  1.00  0.00    -0.344 N 
HETATM    3  C   UNL     1     116.773 155.848 -28.617  1.00  0.00     0.053 A 
HETATM    4  C   UNL     1     117.747 157.696 -27.719  1.00  0.00     0.087 A 
HETATM    5  C   UNL     1     118.084 155.613 -29.014  1.00  0.00     0.057 A 
HETATM    6  C   UNL     1     118.463 154.489 -29.762  1.00  0.00     0.097 A 
HETATM    7  C   UNL     1     117.451 153.561 -30.118  1.00  0.00    -0.037 A 
HETATM    8  C   UNL     1     115.776 154.924 -28.965  1.00  0.00     0.031 A 
HETATM    9  C   UNL     1     115.258 157.321 -27.321  1.00  0.00     0.157 C 
HETATM   10  C   UNL     1     116.118 153.792 -29.712  1.00  0.00     0.011 A 
HETATM   11  C   UNL     1     117.764 152.326 -30.921  1.00  0.00     0.050 C 
ENDROOT
BRANCH   4  12
HETATM   12  C   UNL     1     117.954 159.022 -27.056  1.00  0.00    -0.001 A 
HETATM   13  C   UNL     1     118.978 159.918 -27.439  1.00  0.00     0.035 A 
HETATM   14  C   UNL     1     119.117 161.120 -26.751  1.00  0.00     0.034 A 
HETATM   15  S   UNL     1     120.229 162.334 -27.020  1.00  0.00    -0.069 SA
HETATM   16  C   UNL     1     118.301 161.479 -25.695  1.00  0.00     0.052 A 
HETATM   17  C   UNL     1     119.653 163.304 -25.750  1.00  0.00     0.087 A 
HETATM   18  N   UNL     1     118.575 162.704 -25.138  1.00  0.00    -0.344 N 
HETATM   19  C   UNL     1     117.737 163.258 -24.066  1.00  0.00     0.157 C 
HETATM   20  C   UNL     1     117.286 160.602 -25.289  1.00  0.00     0.032 A 
HETATM   21  C   UNL     1     117.127 159.379 -25.960  1.00  0.00     0.016 A 
BRANCH  17  22
HETATM   22  C   UNL     1     120.320 164.598 -25.400  1.00  0.00    -0.002 A 
HETATM   23  C   UNL     1     119.840 165.849 -25.828  1.00  0.00     0.016 A 
HETATM   24  C   UNL     1     120.481 167.034 -25.458  1.00  0.00     0.030 A 
HETATM   25  C   UNL     1     121.627 167.020 -24.633  1.00  0.00     0.029 A 
HETATM   26  C   UNL     1     122.092 165.765 -24.187  1.00  0.00     0.030 A 
HETATM   27  C   UNL     1     121.447 164.582 -24.557  1.00  0.00     0.016 A 
BRANCH  25  28
HETATM   28  N   UNL     1     122.290 168.244 -24.250  1.00  0.00    -0.390 N 
HETATM   29  C   UNL     1     121.518 169.405 -23.825  1.00  0.00     0.149 C 
HETATM   30  C   UNL     1     123.743 168.343 -24.281  1.00  0.00     0.149 C 
ENDBRANCH  25  28
ENDBRANCH  17  22
ENDBRANCH   4  12
BRANCH   6  31
HETATM   31  S   UNL     1     120.189 154.249 -30.247  1.00  0.00     0.131 S 
HETATM   32  O   UNL     1     120.772 152.928 -29.720  1.00  0.00    -0.598 OA
HETATM   33  O   UNL     1     120.322 154.044 -31.763  1.00  0.00    -0.598 OA
BRANCH  31  34
HETATM   34  O   UNL     1     121.370 155.441 -29.876  1.00  0.00    -0.292 OA
HETATM   35  H   UNL     1     121.019 155.913 -29.078  1.00  0.00     0.232 HD
ENDBRANCH  31  34
ENDBRANCH   6  31
TORSDOF 5
ENDMDL
MODEL 9
REMARK VINA RESULT:      -9.9     11.131     18.725
REMARK  5 active torsions:
REMARK  status: ('A' for Active; 'I' for Inactive)
REMARK    1  A    between atoms: S_3  and  O_4 
REMARK    2  A    between atoms: S_3  and  C_15 
REMARK    3  A    between atoms: N_9  and  C_30 
REMARK    4  A    between atoms: C_11  and  C_13 
REMARK    5  A    between atoms: C_18  and  C_25 
ROOT
HETATM    1  S   UNL     1     115.368 139.469 -37.031  1.00  0.00    -0.068 SA
HETATM    2  N   UNL     1     112.879 139.854 -36.861  1.00  0.00    -0.344 N 
HETATM    3  C   UNL     1     113.068 138.664 -37.521  1.00  0.00     0.053 A 
HETATM    4  C   UNL     1     114.076 140.450 -36.541  1.00  0.00     0.087 A 
HETATM    5  C   UNL     1     114.393 138.289 -37.705  1.00  0.00     0.057 A 
HETATM    6  C   UNL     1     114.766 137.101 -38.351  1.00  0.00     0.097 A 
HETATM    7  C   UNL     1     113.730 136.257 -38.830  1.00  0.00    -0.037 A 
HETATM    8  C   UNL     1     112.047 137.823 -37.989  1.00  0.00     0.031 A 
HETATM    9  C   UNL     1     111.532 140.330 -36.517  1.00  0.00     0.157 C 
HETATM   10  C   UNL     1     112.381 136.631 -38.641  1.00  0.00     0.011 A 
HETATM   11  C   UNL     1     114.034 134.964 -39.538  1.00  0.00     0.050 C 
ENDROOT
BRANCH   4  12
HETATM   12  C   UNL     1     114.314 141.779 -35.894  1.00  0.00    -0.001 A 
HETATM   13  C   UNL     1     115.422 142.598 -36.210  1.00  0.00     0.035 A 
HETATM   14  C   UNL     1     115.581 143.808 -35.542  1.00  0.00     0.034 A 
HETATM   15  S   UNL     1     116.789 144.941 -35.745  1.00  0.00    -0.069 SA
HETATM   16  C   UNL     1     114.706 144.248 -34.567  1.00  0.00     0.052 A 
HETATM   17  C   UNL     1     116.174 145.982 -34.551  1.00  0.00     0.087 A 
HETATM   18  N   UNL     1     115.013 145.469 -34.018  1.00  0.00    -0.344 N 
HETATM   19  C   UNL     1     114.127 146.106 -33.034  1.00  0.00     0.157 C 
HETATM   20  C   UNL     1     113.606 143.449 -34.227  1.00  0.00     0.032 A 
HETATM   21  C   UNL     1     113.424 142.219 -34.881  1.00  0.00     0.016 A 
BRANCH  17  22
HETATM   22  C   UNL     1     116.893 147.241 -34.177  1.00  0.00    -0.002 A 
HETATM   23  C   UNL     1     116.474 148.517 -34.595  1.00  0.00     0.016 A 
HETATM   24  C   UNL     1     117.161 149.668 -34.202  1.00  0.00     0.030 A 
HETATM   25  C   UNL     1     118.294 149.594 -33.364  1.00  0.00     0.029 A 
HETATM   26  C   UNL     1     118.698 148.315 -32.928  1.00  0.00     0.030 A 
HETATM   27  C   UNL     1     118.007 147.166 -33.320  1.00  0.00     0.016 A 
BRANCH  25  28
HETATM   28  N   UNL     1     119.005 150.783 -32.957  1.00  0.00    -0.390 N 
HETATM   29  C   UNL     1     120.462 150.796 -32.903  1.00  0.00     0.149 C 
HETATM   30  C   UNL     1     118.280 151.993 -32.591  1.00  0.00     0.149 C 
ENDBRANCH  25  28
ENDBRANCH  17  22
ENDBRANCH   4  12
BRANCH   6  31
HETATM   31  S   UNL     1     116.512 136.677 -38.558  1.00  0.00     0.131 S 
HETATM   32  O   UNL     1     117.450 137.710 -37.913  1.00  0.00    -0.598 OA
HETATM   33  O   UNL     1     116.879 135.413 -37.768  1.00  0.00    -0.598 OA
BRANCH  31  34
HETATM   34  O   UNL     1     117.159 136.399 -40.126  1.00  0.00    -0.292 OA
HETATM   35  H   UNL     1     116.369 136.308 -40.718  1.00  0.00     0.232 HD
ENDBRANCH  31  34
ENDBRANCH   6  31
TORSDOF 5
ENDMDL
MODEL 10
REMARK VINA RESULT:      -9.9      5.453      9.856
REMARK  5 active torsions:
REMARK  status: ('A' for Active; 'I' for Inactive)
REMARK    1  A    between atoms: S_3  and  O_4 
REMARK    2  A    between atoms: S_3  and  C_15 
REMARK    3  A    between atoms: N_9  and  C_30 
REMARK    4  A    between atoms: C_11  and  C_13 
REMARK    5  A    between atoms: C_18  and  C_25 
ROOT
HETATM    1  S   UNL     1     121.674 167.322 -23.472  1.00  0.00    -0.068 SA
HETATM    2  N   UNL     1     119.301 166.739 -22.842  1.00  0.00    -0.344 N 
HETATM    3  C   UNL     1     119.635 167.890 -22.171  1.00  0.00     0.053 A 
HETATM    4  C   UNL     1     120.350 166.272 -23.598  1.00  0.00     0.087 A 
HETATM    5  C   UNL     1     120.920 168.363 -22.402  1.00  0.00     0.057 A 
HETATM    6  C   UNL     1     121.422 169.529 -21.805  1.00  0.00     0.097 A 
HETATM    7  C   UNL     1     120.565 170.244 -20.930  1.00  0.00    -0.037 A 
HETATM    8  C   UNL     1     118.787 168.604 -21.311  1.00  0.00     0.031 A 
HETATM    9  C   UNL     1     117.946 166.175 -22.762  1.00  0.00     0.157 C 
HETATM   10  C   UNL     1     119.255 169.771 -20.696  1.00  0.00     0.011 A 
HETATM   11  C   UNL     1     121.017 171.504 -20.242  1.00  0.00     0.050 C 
ENDROOT
BRANCH   4  12
HETATM   12  C   UNL     1     120.429 165.018 -24.412  1.00  0.00    -0.001 A 
HETATM   13  C   UNL     1     119.281 164.320 -24.856  1.00  0.00     0.035 A 
HETATM   14  C   UNL     1     119.445 163.147 -25.587  1.00  0.00     0.034 A 
HETATM   15  S   UNL     1     118.259 162.162 -26.224  1.00  0.00    -0.069 SA
HETATM   16  C   UNL     1     120.685 162.620 -25.894  1.00  0.00     0.052 A 
HETATM   17  C   UNL     1     119.367 161.051 -26.874  1.00  0.00     0.087 A 
HETATM   18  N   UNL     1     120.659 161.460 -26.628  1.00  0.00    -0.344 N 
HETATM   19  C   UNL     1     121.898 160.832 -27.104  1.00  0.00     0.157 C 
HETATM   20  C   UNL     1     121.837 163.287 -25.454  1.00  0.00     0.032 A 
HETATM   21  C   UNL     1     121.703 164.470 -24.709  1.00  0.00     0.016 A 
BRANCH  17  22
HETATM   22  C   UNL     1     118.902 159.807 -27.567  1.00  0.00    -0.002 A 
HETATM   23  C   UNL     1     118.846 159.685 -28.967  1.00  0.00     0.016 A 
HETATM   24  C   UNL     1     118.427 158.497 -29.572  1.00  0.00     0.030 A 
HETATM   25  C   UNL     1     118.054 157.375 -28.802  1.00  0.00     0.029 A 
HETATM   26  C   UNL     1     118.133 157.494 -27.399  1.00  0.00     0.030 A 
HETATM   27  C   UNL     1     118.555 158.682 -26.797  1.00  0.00     0.016 A 
BRANCH  25  28
HETATM   28  N   UNL     1     117.621 156.147 -29.427  1.00  0.00    -0.390 N 
HETATM   29  C   UNL     1     116.607 155.310 -28.797  1.00  0.00     0.149 C 
HETATM   30  C   UNL     1     118.191 155.719 -30.698  1.00  0.00     0.149 C 
ENDBRANCH  25  28
ENDBRANCH  17  22
ENDBRANCH   4  12
BRANCH   6  31
HETATM   31  S   UNL     1     123.109 170.084 -22.151  1.00  0.00     0.131 S 
HETATM   32  O   UNL     1     123.169 171.559 -22.577  1.00  0.00    -0.598 OA
HETATM   33  O   UNL     1     123.962 170.112 -20.874  1.00  0.00    -0.598 OA
BRANCH  31  34
HETATM   34  O   UNL     1     124.083 169.246 -23.291  1.00  0.00    -0.292 OA
HETATM   35  H   UNL     1     123.767 169.556 -24.178  1.00  0.00     0.232 HD
ENDBRANCH  31  34
ENDBRANCH   6  31
TORSDOF 5
ENDMDL
MODEL 11
REMARK VINA RESULT:      -9.9      3.331      6.129
REMARK  5 active torsions:
REMARK  status: ('A' for Active; 'I' for Inactive)
REMARK    1  A    between atoms: S_3  and  O_4 
REMARK    2  A    between atoms: S_3  and  C_15 
REMARK    3  A    between atoms: N_9  and  C_30 
REMARK    4  A    between atoms: C_11  and  C_13 
REMARK    5  A    between atoms: C_18  and  C_25 
ROOT
HETATM    1  S   UNL     1     118.301 163.359 -24.353  1.00  0.00    -0.068 SA
HETATM    2  N   UNL     1     120.026 163.157 -26.185  1.00  0.00    -0.344 N 
HETATM    3  C   UNL     1     120.169 164.401 -25.620  1.00  0.00     0.053 A 
HETATM    4  C   UNL     1     118.997 162.453 -25.605  1.00  0.00     0.087 A 
HETATM    5  C   UNL     1     119.291 164.688 -24.582  1.00  0.00     0.057 A 
HETATM    6  C   UNL     1     119.303 165.907 -23.889  1.00  0.00     0.097 A 
HETATM    7  C   UNL     1     120.261 166.878 -24.278  1.00  0.00    -0.037 A 
HETATM    8  C   UNL     1     121.120 165.361 -25.998  1.00  0.00     0.031 A 
HETATM    9  C   UNL     1     120.944 162.685 -27.232  1.00  0.00     0.157 C 
HETATM   10  C   UNL     1     121.159 166.590 -25.330  1.00  0.00     0.011 A 
HETATM   11  C   UNL     1     120.347 168.217 -23.594  1.00  0.00     0.050 C 
ENDROOT
BRANCH   4  12
HETATM   12  C   UNL     1     118.466 161.102 -25.973  1.00  0.00    -0.001 A 
HETATM   13  C   UNL     1     118.951 160.364 -27.078  1.00  0.00     0.035 A 
HETATM   14  C   UNL     1     118.383 159.127 -27.365  1.00  0.00     0.034 A 
HETATM   15  S   UNL     1     118.786 158.074 -28.595  1.00  0.00    -0.069 SA
HETATM   16  C   UNL     1     117.351 158.583 -26.623  1.00  0.00     0.052 A 
HETATM   17  C   UNL     1     117.604 156.933 -28.164  1.00  0.00     0.087 A 
HETATM   18  N   UNL     1     116.918 157.351 -27.045  1.00  0.00    -0.344 N 
HETATM   19  C   UNL     1     115.889 156.610 -26.302  1.00  0.00     0.157 C 
HETATM   20  C   UNL     1     116.846 159.302 -25.531  1.00  0.00     0.032 A 
HETATM   21  C   UNL     1     117.395 160.556 -25.221  1.00  0.00     0.016 A 
BRANCH  17  22
HETATM   22  C   UNL     1     117.390 155.694 -28.977  1.00  0.00    -0.002 A 
HETATM   23  C   UNL     1     116.614 154.608 -28.532  1.00  0.00     0.016 A 
HETATM   24  C   UNL     1     116.421 153.481 -29.334  1.00  0.00     0.030 A 
HETATM   25  C   UNL     1     116.989 153.394 -30.623  1.00  0.00     0.029 A 
HETATM   26  C   UNL     1     117.747 154.493 -31.076  1.00  0.00     0.030 A 
HETATM   27  C   UNL     1     117.935 155.621 -30.272  1.00  0.00     0.016 A 
BRANCH  25  28
HETATM   28  N   UNL     1     116.790 152.229 -31.453  1.00  0.00    -0.390 N 
HETATM   29  C   UNL     1     115.904 151.153 -31.023  1.00  0.00     0.149 C 
HETATM   30  C   UNL     1     117.471 152.105 -32.735  1.00  0.00     0.149 C 
ENDBRANCH  25  28
ENDBRANCH  17  22
ENDBRANCH   4  12
BRANCH   6  31
HETATM   31  S   UNL     1     118.128 166.213 -22.549  1.00  0.00     0.131 S 
HETATM   32  O   UNL     1     118.339 167.580 -21.878  1.00  0.00    -0.598 OA
HETATM   33  O   UNL     1     116.696 166.367 -23.083  1.00  0.00    -0.598 OA
BRANCH  31  34
HETATM   34  O   UNL     1     117.977 165.094 -21.253  1.00  0.00    -0.292 OA
HETATM   35  H   UNL     1     118.722 164.453 -21.378  1.00  0.00     0.232 HD
ENDBRANCH  31  34
ENDBRANCH   6  31
TORSDOF 5
ENDMDL
MODEL 12
REMARK VINA RESULT:      -9.9      4.454     13.042
REMARK  5 active torsions:
REMARK  status: ('A' for Active; 'I' for Inactive)
REMARK    1  A    between atoms: S_3  and  O_4 
REMARK    2  A    between atoms: S_3  and  C_15 
REMARK    3  A    between atoms: N_9  and  C_30 
REMARK    4  A    between atoms: C_11  and  C_13 
REMARK    5  A    between atoms: C_18  and  C_25 
ROOT
HETATM    1  S   UNL     1     119.833 157.269 -28.421  1.00  0.00    -0.068 SA
HETATM    2  N   UNL     1     117.630 158.055 -27.472  1.00  0.00    -0.344 N 
HETATM    3  C   UNL     1     117.416 156.825 -28.046  1.00  0.00     0.053 A 
HETATM    4  C   UNL     1     118.935 158.463 -27.621  1.00  0.00     0.087 A 
HETATM    5  C   UNL     1     118.534 156.235 -28.624  1.00  0.00     0.057 A 
HETATM    6  C   UNL     1     118.496 154.979 -29.246  1.00  0.00     0.097 A 
HETATM    7  C   UNL     1     117.253 154.295 -29.276  1.00  0.00    -0.037 A 
HETATM    8  C   UNL     1     116.191 156.142 -28.071  1.00  0.00     0.031 A 
HETATM    9  C   UNL     1     116.560 158.754 -26.746  1.00  0.00     0.157 C 
HETATM   10  C   UNL     1     116.115 154.887 -28.686  1.00  0.00     0.011 A 
HETATM   11  C   UNL     1     117.116 152.943 -29.925  1.00  0.00     0.050 C 
ENDROOT
BRANCH   4  12
HETATM   12  C   UNL     1     119.559 159.761 -27.213  1.00  0.00    -0.001 A 
HETATM   13  C   UNL     1     118.866 160.745 -26.470  1.00  0.00     0.035 A 
HETATM   14  C   UNL     1     119.514 161.935 -26.155  1.00  0.00     0.034 A 
HETATM   15  S   UNL     1     118.917 163.230 -25.289  1.00  0.00    -0.069 SA
HETATM   16  C   UNL     1     120.811 162.210 -26.544  1.00  0.00     0.052 A 
HETATM   17  C   UNL     1     120.341 164.141 -25.445  1.00  0.00     0.087 A 
HETATM   18  N   UNL     1     121.294 163.429 -26.139  1.00  0.00    -0.344 N 
HETATM   19  C   UNL     1     122.685 163.824 -26.401  1.00  0.00     0.157 C 
HETATM   20  C   UNL     1     121.515 161.255 -27.291  1.00  0.00     0.032 A 
HETATM   21  C   UNL     1     120.884 160.047 -27.630  1.00  0.00     0.016 A 
BRANCH  17  22
HETATM   22  C   UNL     1     120.434 165.534 -24.901  1.00  0.00    -0.002 A 
HETATM   23  C   UNL     1     120.019 166.668 -25.622  1.00  0.00     0.016 A 
HETATM   24  C   UNL     1     120.101 167.947 -25.066  1.00  0.00     0.030 A 
HETATM   25  C   UNL     1     120.594 168.147 -23.758  1.00  0.00     0.029 A 
HETATM   26  C   UNL     1     120.988 167.005 -23.030  1.00  0.00     0.030 A 
HETATM   27  C   UNL     1     120.901 165.727 -23.588  1.00  0.00     0.016 A 
BRANCH  25  28
HETATM   28  N   UNL     1     120.678 169.469 -23.183  1.00  0.00    -0.390 N 
HETATM   29  C   UNL     1     120.456 169.674 -21.757  1.00  0.00     0.149 C 
HETATM   30  C   UNL     1     120.986 170.624 -24.017  1.00  0.00     0.149 C 
ENDBRANCH  25  28
ENDBRANCH  17  22
ENDBRANCH   4  12
BRANCH   6  31
HETATM   31  S   UNL     1     119.990 154.273 -29.981  1.00  0.00     0.131 S 
HETATM   32  O   UNL     1     120.351 152.903 -29.385  1.00  0.00    -0.598 OA
HETATM   33  O   UNL     1     119.769 153.903 -31.455  1.00  0.00    -0.598 OA
BRANCH  31  34
HETATM   34  O   UNL     1     121.461 155.163 -29.985  1.00  0.00    -0.292 OA
HETATM   35  H   UNL     1     121.497 155.605 -29.098  1.00  0.00     0.232 HD
ENDBRANCH  31  34
ENDBRANCH   6  31
TORSDOF 5
ENDMDL
MODEL 13
REMARK VINA RESULT:      -9.8      9.398     16.664
REMARK  5 active torsions:
REMARK  status: ('A' for Active; 'I' for Inactive)
REMARK    1  A    between atoms: S_3  and  O_4 
REMARK    2  A    between atoms: S_3  and  C_15 
REMARK    3  A    between atoms: N_9  and  C_30 
REMARK    4  A    between atoms: C_11  and  C_13 
REMARK    5  A    between atoms: C_18  and  C_25 
ROOT
HETATM    1  S   UNL     1     113.776 142.212 -35.609  1.00  0.00    -0.068 SA
HETATM    2  N   UNL     1     116.100 142.898 -36.318  1.00  0.00    -0.344 N 
HETATM    3  C   UNL     1     115.820 141.698 -36.927  1.00  0.00     0.053 A 
HETATM    4  C   UNL     1     115.062 143.312 -35.517  1.00  0.00     0.087 A 
HETATM    5  C   UNL     1     114.567 141.166 -36.647  1.00  0.00     0.057 A 
HETATM    6  C   UNL     1     114.116 139.954 -37.190  1.00  0.00     0.097 A 
HETATM    7  C   UNL     1     114.990 139.255 -38.061  1.00  0.00    -0.037 A 
HETATM    8  C   UNL     1     116.679 141.008 -37.795  1.00  0.00     0.031 A 
HETATM    9  C   UNL     1     117.350 143.619 -36.593  1.00  0.00     0.157 C 
HETATM   10  C   UNL     1     116.263 139.794 -38.353  1.00  0.00     0.011 A 
HETATM   11  C   UNL     1     114.593 137.945 -38.689  1.00  0.00     0.050 C 
ENDROOT
BRANCH   4  12
HETATM   12  C   UNL     1     114.992 144.515 -34.627  1.00  0.00    -0.001 A 
HETATM   13  C   UNL     1     115.718 145.701 -34.884  1.00  0.00     0.035 A 
HETATM   14  C   UNL     1     115.615 146.763 -33.991  1.00  0.00     0.034 A 
HETATM   15  S   UNL     1     116.358 148.254 -34.080  1.00  0.00    -0.069 SA
HETATM   16  C   UNL     1     114.840 146.711 -32.848  1.00  0.00     0.052 A 
HETATM   17  C   UNL     1     115.680 148.809 -32.625  1.00  0.00     0.087 A 
HETATM   18  N   UNL     1     114.850 147.852 -32.086  1.00  0.00    -0.344 N 
HETATM   19  C   UNL     1     114.005 147.978 -30.890  1.00  0.00     0.157 C 
HETATM   20  C   UNL     1     114.120 145.541 -32.565  1.00  0.00     0.032 A 
HETATM   21  C   UNL     1     114.209 144.451 -33.446  1.00  0.00     0.016 A 
BRANCH  17  22
HETATM   22  C   UNL     1     116.032 150.156 -32.071  1.00  0.00    -0.002 A 
HETATM   23  C   UNL     1     115.449 150.680 -30.903  1.00  0.00     0.016 A 
HETATM   24  C   UNL     1     115.825 151.932 -30.408  1.00  0.00     0.030 A 
HETATM   25  C   UNL     1     116.808 152.710 -31.055  1.00  0.00     0.029 A 
HETATM   26  C   UNL     1     117.407 152.171 -32.213  1.00  0.00     0.030 A 
HETATM   27  C   UNL     1     117.031 150.918 -32.704  1.00  0.00     0.016 A 
BRANCH  25  28
HETATM   28  N   UNL     1     117.197 154.003 -30.544  1.00  0.00    -0.390 N 
HETATM   29  C   UNL     1     117.012 154.332 -29.136  1.00  0.00     0.149 C 
HETATM   30  C   UNL     1     117.781 155.006 -31.426  1.00  0.00     0.149 C 
ENDBRANCH  25  28
ENDBRANCH  17  22
ENDBRANCH   4  12
BRANCH   6  31
HETATM   31  S   UNL     1     112.473 139.320 -36.779  1.00  0.00     0.131 S 
HETATM   32  O   UNL     1     112.267 139.148 -35.265  1.00  0.00    -0.598 OA
HETATM   33  O   UNL     1     111.378 140.345 -37.109  1.00  0.00    -0.598 OA
BRANCH  31  34
HETATM   34  O   UNL     1     111.906 137.856 -37.479  1.00  0.00    -0.292 OA
HETATM   35  H   UNL     1     111.323 137.449 -36.788  1.00  0.00     0.232 HD
ENDBRANCH  31  34
ENDBRANCH   6  31
TORSDOF 5
ENDMDL
MODEL 14
REMARK VINA RESULT:      -9.8      2.996      5.512
REMARK  5 active torsions:
REMARK  status: ('A' for Active; 'I' for Inactive)
REMARK    1  A    between atoms: S_3  and  O_4 
REMARK    2  A    between atoms: S_3  and  C_15 
REMARK    3  A    between atoms: N_9  and  C_30 
REMARK    4  A    between atoms: C_11  and  C_13 
REMARK    5  A    between atoms: C_18  and  C_25 
ROOT
HETATM    1  S   UNL     1     116.470 154.738 -28.916  1.00  0.00    -0.068 SA
HETATM    2  N   UNL     1     118.310 154.448 -30.620  1.00  0.00    -0.344 N 
HETATM    3  C   UNL     1     118.452 155.699 -30.069  1.00  0.00     0.053 A 
HETATM    4  C   UNL     1     117.222 153.786 -30.100  1.00  0.00     0.087 A 
HETATM    5  C   UNL     1     117.514 156.032 -29.099  1.00  0.00     0.057 A 
HETATM    6  C   UNL     1     117.517 157.264 -28.429  1.00  0.00     0.097 A 
HETATM    7  C   UNL     1     118.530 158.198 -28.769  1.00  0.00    -0.037 A 
HETATM    8  C   UNL     1     119.456 156.621 -30.397  1.00  0.00     0.031 A 
HETATM    9  C   UNL     1     119.282 153.928 -31.592  1.00  0.00     0.157 C 
HETATM   10  C   UNL     1     119.488 157.862 -29.751  1.00  0.00     0.011 A 
HETATM   11  C   UNL     1     118.610 159.547 -28.105  1.00  0.00     0.050 C 
ENDROOT
BRANCH   4  12
HETATM   12  C   UNL     1     116.675 152.445 -30.480  1.00  0.00    -0.001 A 
HETATM   13  C   UNL     1     117.210 151.672 -31.536  1.00  0.00     0.035 A 
HETATM   14  C   UNL     1     116.624 150.447 -31.839  1.00  0.00     0.034 A 
HETATM   15  S   UNL     1     117.076 149.358 -33.020  1.00  0.00    -0.069 SA
HETATM   16  C   UNL     1     115.529 149.948 -31.159  1.00  0.00     0.052 A 
HETATM   17  C   UNL     1     115.833 148.261 -32.650  1.00  0.00     0.087 A 
HETATM   18  N   UNL     1     115.087 148.721 -31.587  1.00  0.00    -0.344 N 
HETATM   19  C   UNL     1     113.988 148.026 -30.903  1.00  0.00     0.157 C 
HETATM   20  C   UNL     1     114.974 150.703 -30.116  1.00  0.00     0.032 A 
HETATM   21  C   UNL     1     115.540 151.946 -29.792  1.00  0.00     0.016 A 
BRANCH  17  22
HETATM   22  C   UNL     1     115.636 147.013 -33.454  1.00  0.00    -0.002 A 
HETATM   23  C   UNL     1     114.900 145.909 -32.988  1.00  0.00     0.016 A 
HETATM   24  C   UNL     1     114.721 144.773 -33.782  1.00  0.00     0.030 A 
HETATM   25  C   UNL     1     115.263 144.697 -35.083  1.00  0.00     0.029 A 
HETATM   26  C   UNL     1     115.982 145.815 -35.556  1.00  0.00     0.030 A 
HETATM   27  C   UNL     1     116.156 146.950 -34.760  1.00  0.00     0.016 A 
BRANCH  25  28
HETATM   28  N   UNL     1     115.079 143.523 -35.905  1.00  0.00    -0.390 N 
HETATM   29  C   UNL     1     115.806 143.372 -37.159  1.00  0.00     0.149 C 
HETATM   30  C   UNL     1     114.160 142.468 -35.496  1.00  0.00     0.149 C 
ENDBRANCH  25  28
ENDBRANCH  17  22
ENDBRANCH   4  12
BRANCH   6  31
HETATM   31  S   UNL     1     116.263 157.632 -27.179  1.00  0.00     0.131 S 
HETATM   32  O   UNL     1     116.463 159.010 -26.529  1.00  0.00    -0.598 OA
HETATM   33  O   UNL     1     114.874 157.804 -27.812  1.00  0.00    -0.598 OA
BRANCH  31  34
HETATM   34  O   UNL     1     115.999 156.551 -25.869  1.00  0.00    -0.292 OA
HETATM   35  H   UNL     1     116.831 156.017 -25.804  1.00  0.00     0.232 HD
ENDBRANCH  31  34
ENDBRANCH   6  31
TORSDOF 5
ENDMDL
MODEL 15
REMARK VINA RESULT:      -9.8      6.895     13.624
REMARK  5 active torsions:
REMARK  status: ('A' for Active; 'I' for Inactive)
REMARK    1  A    between atoms: S_3  and  O_4 
REMARK    2  A    between atoms: S_3  and  C_15 
REMARK    3  A    between atoms: N_9  and  C_30 
REMARK    4  A    between atoms: C_11  and  C_13 
REMARK    5  A    between atoms: C_18  and  C_25 
ROOT
HETATM    1  S   UNL     1     114.637 146.622 -33.151  1.00  0.00    -0.068 SA
HETATM    2  N   UNL     1     116.798 147.472 -34.143  1.00  0.00    -0.344 N 
HETATM    3  C   UNL     1     116.525 146.258 -34.727  1.00  0.00     0.053 A 
HETATM    4  C   UNL     1     115.846 147.809 -33.209  1.00  0.00     0.087 A 
HETATM    5  C   UNL     1     115.358 145.639 -34.297  1.00  0.00     0.057 A 
HETATM    6  C   UNL     1     114.925 144.401 -34.794  1.00  0.00     0.097 A 
HETATM    7  C   UNL     1     115.725 143.770 -35.780  1.00  0.00    -0.037 A 
HETATM    8  C   UNL     1     117.310 145.635 -35.708  1.00  0.00     0.031 A 
HETATM    9  C   UNL     1     117.950 148.280 -34.567  1.00  0.00     0.157 C 
HETATM   10  C   UNL     1     116.910 144.398 -36.226  1.00  0.00     0.011 A 
HETATM   11  C   UNL     1     115.341 142.438 -36.370  1.00  0.00     0.050 C 
ENDROOT
BRANCH   4  12
HETATM   12  C   UNL     1     115.810 148.999 -32.301  1.00  0.00    -0.001 A 
HETATM   13  C   UNL     1     116.505 150.198 -32.582  1.00  0.00     0.035 A 
HETATM   14  C   UNL     1     116.438 151.247 -31.670  1.00  0.00     0.034 A 
HETATM   15  S   UNL     1     117.156 152.748 -31.780  1.00  0.00    -0.069 SA
HETATM   16  C   UNL     1     115.726 151.170 -30.488  1.00  0.00     0.052 A 
HETATM   17  C   UNL     1     116.551 153.277 -30.283  1.00  0.00     0.087 A 
HETATM   18  N   UNL     1     115.764 152.302 -29.712  1.00  0.00    -0.344 N 
HETATM   19  C   UNL     1     114.984 152.401 -28.470  1.00  0.00     0.157 C 
HETATM   20  C   UNL     1     115.038 149.988 -30.182  1.00  0.00     0.032 A 
HETATM   21  C   UNL     1     115.093 148.910 -31.080  1.00  0.00     0.016 A 
BRANCH  17  22
HETATM   22  C   UNL     1     116.915 154.620 -29.730  1.00  0.00    -0.002 A 
HETATM   23  C   UNL     1     116.363 155.138 -28.545  1.00  0.00     0.016 A 
HETATM   24  C   UNL     1     116.750 156.387 -28.053  1.00  0.00     0.030 A 
HETATM   25  C   UNL     1     117.715 157.170 -28.721  1.00  0.00     0.029 A 
HETATM   26  C   UNL     1     118.283 156.639 -29.898  1.00  0.00     0.030 A 
HETATM   27  C   UNL     1     117.896 155.388 -30.385  1.00  0.00     0.016 A 
BRANCH  25  28
HETATM   28  N   UNL     1     118.115 158.462 -28.213  1.00  0.00    -0.390 N 
HETATM   29  C   UNL     1     117.687 158.905 -26.892  1.00  0.00     0.149 C 
HETATM   30  C   UNL     1     118.954 159.347 -29.012  1.00  0.00     0.149 C 
ENDBRANCH  25  28
ENDBRANCH  17  22
ENDBRANCH   4  12
BRANCH   6  31
HETATM   31  S   UNL     1     113.396 143.652 -34.185  1.00  0.00     0.131 S 
HETATM   32  O   UNL     1     112.140 144.280 -34.810  1.00  0.00    -0.598 OA
HETATM   33  O   UNL     1     113.260 142.196 -34.654  1.00  0.00    -0.598 OA
BRANCH  31  34
HETATM   34  O   UNL     1     113.072 143.584 -32.498  1.00  0.00    -0.292 OA
HETATM   35  H   UNL     1     112.218 144.073 -32.380  1.00  0.00     0.232 HD
ENDBRANCH  31  34
ENDBRANCH   6  31
TORSDOF 5
ENDMDL
MODEL 16
REMARK VINA RESULT:      -9.8      4.356     11.656
REMARK  5 active torsions:
REMARK  status: ('A' for Active; 'I' for Inactive)
REMARK    1  A    between atoms: S_3  and  O_4 
REMARK    2  A    between atoms: S_3  and  C_15 
REMARK    3  A    between atoms: N_9  and  C_30 
REMARK    4  A    between atoms: C_11  and  C_13 
REMARK    5  A    between atoms: C_18  and  C_25 
ROOT
HETATM    1  S   UNL     1     118.988 152.900 -30.607  1.00  0.00    -0.068 SA
HETATM    2  N   UNL     1     116.780 153.740 -29.718  1.00  0.00    -0.344 N 
HETATM    3  C   UNL     1     116.555 152.509 -30.287  1.00  0.00     0.053 A 
HETATM    4  C   UNL     1     118.096 154.120 -29.840  1.00  0.00     0.087 A 
HETATM    5  C   UNL     1     117.673 151.892 -30.832  1.00  0.00     0.057 A 
HETATM    6  C   UNL     1     117.624 150.631 -31.444  1.00  0.00     0.097 A 
HETATM    7  C   UNL     1     116.369 149.972 -31.499  1.00  0.00    -0.037 A 
HETATM    8  C   UNL     1     115.316 151.851 -30.335  1.00  0.00     0.031 A 
HETATM    9  C   UNL     1     115.707 154.467 -29.024  1.00  0.00     0.157 C 
HETATM   10  C   UNL     1     115.230 150.593 -30.941  1.00  0.00     0.011 A 
HETATM   11  C   UNL     1     116.219 148.617 -32.139  1.00  0.00     0.050 C 
ENDROOT
BRANCH   4  12
HETATM   12  C   UNL     1     118.737 155.408 -29.427  1.00  0.00    -0.001 A 
HETATM   13  C   UNL     1     118.044 156.416 -28.717  1.00  0.00     0.035 A 
HETATM   14  C   UNL     1     118.710 157.595 -28.396  1.00  0.00     0.034 A 
HETATM   15  S   UNL     1     118.117 158.913 -27.563  1.00  0.00    -0.069 SA
HETATM   16  C   UNL     1     120.024 157.836 -28.749  1.00  0.00     0.052 A 
HETATM   17  C   UNL     1     119.565 159.791 -27.686  1.00  0.00     0.087 A 
HETATM   18  N   UNL     1     120.522 159.050 -28.344  1.00  0.00    -0.344 N 
HETATM   19  C   UNL     1     121.928 159.410 -28.570  1.00  0.00     0.157 C 
HETATM   20  C   UNL     1     120.728 156.858 -29.464  1.00  0.00     0.032 A 
HETATM   21  C   UNL     1     120.080 155.660 -29.808  1.00  0.00     0.016 A 
BRANCH  17  22
HETATM   22  C   UNL     1     119.673 161.187 -27.156  1.00  0.00    -0.002 A 
HETATM   23  C   UNL     1     119.161 162.307 -27.835  1.00  0.00     0.016 A 
HETATM   24  C   UNL     1     119.262 163.590 -27.291  1.00  0.00     0.030 A 
HETATM   25  C   UNL     1     119.873 163.808 -26.037  1.00  0.00     0.029 A 
HETATM   26  C   UNL     1     120.366 162.680 -25.349  1.00  0.00     0.030 A 
HETATM   27  C   UNL     1     120.260 161.398 -25.894  1.00  0.00     0.016 A 
BRANCH  25  28
HETATM   28  N   UNL     1     119.978 165.134 -25.475  1.00  0.00    -0.390 N 
HETATM   29  C   UNL     1     120.432 166.253 -26.291  1.00  0.00     0.149 C 
HETATM   30  C   UNL     1     119.634 165.379 -24.080  1.00  0.00     0.149 C 
ENDBRANCH  25  28
ENDBRANCH  17  22
ENDBRANCH   4  12
BRANCH   6  31
HETATM   31  S   UNL     1     119.121 149.888 -32.137  1.00  0.00     0.131 S 
HETATM   32  O   UNL     1     119.447 148.523 -31.509  1.00  0.00    -0.598 OA
HETATM   33  O   UNL     1     118.922 149.493 -33.608  1.00  0.00    -0.598 OA
BRANCH  31  34
HETATM   34  O   UNL     1     120.605 150.754 -32.128  1.00  0.00    -0.292 OA
HETATM   35  H   UNL     1     121.037 150.516 -31.268  1.00  0.00     0.232 HD
ENDBRANCH  31  34
ENDBRANCH   6  31
TORSDOF 5
ENDMDL
MODEL 17
REMARK VINA RESULT:      -9.8      7.670     14.569
REMARK  5 active torsions:
REMARK  status: ('A' for Active; 'I' for Inactive)
REMARK    1  A    between atoms: S_3  and  O_4 
REMARK    2  A    between atoms: S_3  and  C_15 
REMARK    3  A    between atoms: N_9  and  C_30 
REMARK    4  A    between atoms: C_11  and  C_13 
REMARK    5  A    between atoms: C_18  and  C_25 
ROOT
HETATM    1  S   UNL     1     117.181 144.351 -34.834  1.00  0.00    -0.068 SA
HETATM    2  N   UNL     1     114.946 145.235 -34.063  1.00  0.00    -0.344 N 
HETATM    3  C   UNL     1     114.730 143.998 -34.619  1.00  0.00     0.053 A 
HETATM    4  C   UNL     1     116.272 145.596 -34.131  1.00  0.00     0.087 A 
HETATM    5  C   UNL     1     115.864 143.356 -35.102  1.00  0.00     0.057 A 
HETATM    6  C   UNL     1     115.826 142.084 -35.693  1.00  0.00     0.097 A 
HETATM    7  C   UNL     1     114.565 141.441 -35.794  1.00  0.00    -0.037 A 
HETATM    8  C   UNL     1     113.487 143.355 -34.713  1.00  0.00     0.031 A 
HETATM    9  C   UNL     1     113.853 145.989 -33.432  1.00  0.00     0.157 C 
HETATM   10  C   UNL     1     113.410 142.087 -35.300  1.00  0.00     0.011 A 
HETATM   11  C   UNL     1     114.426 140.077 -36.416  1.00  0.00     0.050 C 
ENDROOT
BRANCH   4  12
HETATM   12  C   UNL     1     116.911 146.883 -33.712  1.00  0.00    -0.001 A 
HETATM   13  C   UNL     1     116.224 147.876 -32.975  1.00  0.00     0.035 A 
HETATM   14  C   UNL     1     116.887 149.055 -32.650  1.00  0.00     0.034 A 
HETATM   15  S   UNL     1     116.300 150.357 -31.788  1.00  0.00    -0.069 SA
HETATM   16  C   UNL     1     118.192 149.311 -33.024  1.00  0.00     0.052 A 
HETATM   17  C   UNL     1     117.740 151.247 -31.925  1.00  0.00     0.087 A 
HETATM   18  N   UNL     1     118.689 150.522 -32.610  1.00  0.00    -0.344 N 
HETATM   19  C   UNL     1     120.089 150.896 -32.857  1.00  0.00     0.157 C 
HETATM   20  C   UNL     1     118.890 148.348 -33.765  1.00  0.00     0.032 A 
HETATM   21  C   UNL     1     118.245 147.150 -34.114  1.00  0.00     0.016 A 
BRANCH  17  22
HETATM   22  C   UNL     1     117.847 152.637 -31.377  1.00  0.00    -0.002 A 
HETATM   23  C   UNL     1     118.309 152.916 -30.079  1.00  0.00     0.016 A 
HETATM   24  C   UNL     1     118.416 154.230 -29.616  1.00  0.00     0.030 A 
HETATM   25  C   UNL     1     118.072 155.325 -30.438  1.00  0.00     0.029 A 
HETATM   26  C   UNL     1     117.630 155.043 -31.747  1.00  0.00     0.030 A 
HETATM   27  C   UNL     1     117.528 153.728 -32.207  1.00  0.00     0.016 A 
BRANCH  25  28
HETATM   28  N   UNL     1     118.182 156.684 -29.960  1.00  0.00    -0.390 N 
HETATM   29  C   UNL     1     118.087 156.981 -28.536  1.00  0.00     0.149 C 
HETATM   30  C   UNL     1     118.389 157.784 -30.893  1.00  0.00     0.149 C 
ENDBRANCH  25  28
ENDBRANCH  17  22
ENDBRANCH   4  12
BRANCH   6  31
HETATM   31  S   UNL     1     117.342 141.310 -36.303  1.00  0.00     0.131 S 
HETATM   32  O   UNL     1     117.599 139.934 -35.667  1.00  0.00    -0.598 OA
HETATM   33  O   UNL     1     117.221 140.929 -37.786  1.00  0.00    -0.598 OA
BRANCH  31  34
HETATM   34  O   UNL     1     118.844 142.139 -36.201  1.00  0.00    -0.292 OA
HETATM   35  H   UNL     1     119.528 141.425 -36.128  1.00  0.00     0.232 HD
ENDBRANCH  31  34
ENDBRANCH   6  31
TORSDOF 5
ENDMDL
MODEL 18
REMARK VINA RESULT:      -9.8     10.441     17.912
REMARK  5 active torsions:
REMARK  status: ('A' for Active; 'I' for Inactive)
REMARK    1  A    between atoms: S_3  and  O_4 
REMARK    2  A    between atoms: S_3  and  C_15 
REMARK    3  A    between atoms: N_9  and  C_30 
REMARK    4  A    between atoms: C_11  and  C_13 
REMARK    5  A    between atoms: C_18  and  C_25 
ROOT
HETATM    1  S   UNL     1     116.186 140.018 -36.898  1.00  0.00    -0.068 SA
HETATM    2  N   UNL     1     113.952 141.004 -36.255  1.00  0.00    -0.344 N 
HETATM    3  C   UNL     1     113.716 139.758 -36.784  1.00  0.00     0.053 A 
HETATM    4  C   UNL     1     115.292 141.316 -36.274  1.00  0.00     0.087 A 
HETATM    5  C   UNL     1     114.846 139.062 -37.195  1.00  0.00     0.057 A 
HETATM    6  C   UNL     1     114.788 137.775 -37.750  1.00  0.00     0.097 A 
HETATM    7  C   UNL     1     113.511 137.173 -37.888  1.00  0.00    -0.037 A 
HETATM    8  C   UNL     1     112.456 139.156 -36.915  1.00  0.00     0.031 A 
HETATM    9  C   UNL     1     112.861 141.815 -35.697  1.00  0.00     0.157 C 
HETATM   10  C   UNL     1     112.359 137.874 -37.466  1.00  0.00     0.011 A 
HETATM   11  C   UNL     1     113.350 135.795 -38.475  1.00  0.00     0.050 C 
ENDROOT
BRANCH   4  12
HETATM   12  C   UNL     1     115.959 142.593 -35.865  1.00  0.00    -0.001 A 
HETATM   13  C   UNL     1     115.282 143.621 -35.169  1.00  0.00     0.035 A 
HETATM   14  C   UNL     1     115.971 144.787 -34.851  1.00  0.00     0.034 A 
HETATM   15  S   UNL     1     115.401 146.125 -34.033  1.00  0.00    -0.069 SA
HETATM   16  C   UNL     1     117.293 144.996 -35.193  1.00  0.00     0.052 A 
HETATM   17  C   UNL     1     116.870 146.969 -34.149  1.00  0.00     0.087 A 
HETATM   18  N   UNL     1     117.815 146.201 -34.792  1.00  0.00    -0.344 N 
HETATM   19  C   UNL     1     119.231 146.528 -35.008  1.00  0.00     0.157 C 
HETATM   20  C   UNL     1     117.982 143.996 -35.895  1.00  0.00     0.032 A 
HETATM   21  C   UNL     1     117.310 142.811 -36.235  1.00  0.00     0.016 A 
BRANCH  17  22
HETATM   22  C   UNL     1     117.004 148.366 -33.628  1.00  0.00    -0.002 A 
HETATM   23  C   UNL     1     116.736 149.505 -34.409  1.00  0.00     0.016 A 
HETATM   24  C   UNL     1     116.852 150.791 -33.874  1.00  0.00     0.030 A 
HETATM   25  C   UNL     1     117.232 150.994 -32.530  1.00  0.00     0.029 A 
HETATM   26  C   UNL     1     117.479 149.849 -31.744  1.00  0.00     0.030 A 
HETATM   27  C   UNL     1     117.359 148.565 -32.281  1.00  0.00     0.016 A 
BRANCH  25  28
HETATM   28  N   UNL     1     117.351 152.322 -31.977  1.00  0.00    -0.390 N 
HETATM   29  C   UNL     1     116.554 152.721 -30.824  1.00  0.00     0.149 C 
HETATM   30  C   UNL     1     118.270 153.290 -32.562  1.00  0.00     0.149 C 
ENDBRANCH  25  28
ENDBRANCH  17  22
ENDBRANCH   4  12
BRANCH   6  31
HETATM   31  S   UNL     1     116.301 136.929 -38.266  1.00  0.00     0.131 S 
HETATM   32  O   UNL     1     116.377 136.732 -39.789  1.00  0.00    -0.598 OA
HETATM   33  O   UNL     1     117.542 137.800 -38.021  1.00  0.00    -0.598 OA
BRANCH  31  34
HETATM   34  O   UNL     1     116.717 135.403 -37.594  1.00  0.00    -0.292 OA
HETATM   35  H   UNL     1     116.206 134.740 -38.125  1.00  0.00     0.232 HD
ENDBRANCH  31  34
ENDBRANCH   6  31
TORSDOF 5
ENDMDL
MODEL 19
REMARK VINA RESULT:      -9.7      4.863     11.797
REMARK  5 active torsions:
REMARK  status: ('A' for Active; 'I' for Inactive)
REMARK    1  A    between atoms: S_3  and  O_4 
REMARK    2  A    between atoms: S_3  and  C_15 
REMARK    3  A    between atoms: N_9  and  C_30 
REMARK    4  A    between atoms: C_11  and  C_13 
REMARK    5  A    between atoms: C_18  and  C_25 
ROOT
HETATM    1  S   UNL     1     118.442 150.663 -32.019  1.00  0.00    -0.068 SA
HETATM    2  N   UNL     1     115.983 150.553 -31.458  1.00  0.00    -0.344 N 
HETATM    3  C   UNL     1     116.273 149.473 -32.257  1.00  0.00     0.053 A 
HETATM    4  C   UNL     1     117.091 151.340 -31.251  1.00  0.00     0.087 A 
HETATM    5  C   UNL     1     117.597 149.372 -32.666  1.00  0.00     0.057 A 
HETATM    6  C   UNL     1     118.066 148.329 -33.477  1.00  0.00     0.097 A 
HETATM    7  C   UNL     1     117.134 147.342 -33.888  1.00  0.00    -0.037 A 
HETATM    8  C   UNL     1     115.355 148.491 -32.659  1.00  0.00     0.031 A 
HETATM    9  C   UNL     1     114.645 150.736 -30.879  1.00  0.00     0.157 C 
HETATM   10  C   UNL     1     115.788 147.437 -33.471  1.00  0.00     0.011 A 
HETATM   11  C   UNL     1     117.546 146.187 -34.762  1.00  0.00     0.050 C 
ENDROOT
BRANCH   4  12
HETATM   12  C   UNL     1     117.189 152.638 -30.511  1.00  0.00    -0.001 A 
HETATM   13  C   UNL     1     118.185 153.604 -30.787  1.00  0.00     0.035 A 
HETATM   14  C   UNL     1     118.220 154.773 -30.033  1.00  0.00     0.034 A 
HETATM   15  S   UNL     1     119.279 156.053 -30.174  1.00  0.00    -0.069 SA
HETATM   16  C   UNL     1     117.327 155.034 -29.011  1.00  0.00     0.052 A 
HETATM   17  C   UNL     1     118.581 156.925 -28.894  1.00  0.00     0.087 A 
HETATM   18  N   UNL     1     117.503 156.240 -28.378  1.00  0.00    -0.344 N 
HETATM   19  C   UNL     1     116.577 156.694 -27.332  1.00  0.00     0.157 C 
HETATM   20  C   UNL     1     116.339 154.086 -28.710  1.00  0.00     0.032 A 
HETATM   21  C   UNL     1     116.283 152.894 -29.451  1.00  0.00     0.016 A 
BRANCH  17  22
HETATM   22  C   UNL     1     119.157 158.230 -28.440  1.00  0.00    -0.002 A 
HETATM   23  C   UNL     1     120.237 158.322 -27.544  1.00  0.00     0.016 A 
HETATM   24  C   UNL     1     120.759 159.562 -27.166  1.00  0.00     0.030 A 
HETATM   25  C   UNL     1     120.228 160.766 -27.676  1.00  0.00     0.029 A 
HETATM   26  C   UNL     1     119.159 160.670 -28.591  1.00  0.00     0.030 A 
HETATM   27  C   UNL     1     118.643 159.428 -28.970  1.00  0.00     0.016 A 
BRANCH  25  28
HETATM   28  N   UNL     1     120.767 162.048 -27.285  1.00  0.00    -0.390 N 
HETATM   29  C   UNL     1     119.907 163.066 -26.695  1.00  0.00     0.149 C 
HETATM   30  C   UNL     1     122.180 162.348 -27.474  1.00  0.00     0.149 C 
ENDBRANCH  25  28
ENDBRANCH  17  22
ENDBRANCH   4  12
BRANCH   6  31
HETATM   31  S   UNL     1     119.804 148.263 -33.973  1.00  0.00     0.131 S 
HETATM   32  O   UNL     1     120.282 146.831 -34.262  1.00  0.00    -0.598 OA
HETATM   33  O   UNL     1     120.023 148.927 -35.341  1.00  0.00    -0.598 OA
BRANCH  31  34
HETATM   34  O   UNL     1     121.021 148.949 -32.971  1.00  0.00    -0.292 OA
HETATM   35  H   UNL     1     121.846 148.931 -33.520  1.00  0.00     0.232 HD
ENDBRANCH  31  34
ENDBRANCH   6  31
TORSDOF 5
ENDMDL
MODEL 20
REMARK VINA RESULT:      -9.7      4.592     13.466
REMARK  5 active torsions:
REMARK  status: ('A' for Active; 'I' for Inactive)
REMARK    1  A    between atoms: S_3  and  O_4 
REMARK    2  A    between atoms: S_3  and  C_15 
REMARK    3  A    between atoms: N_9  and  C_30 
REMARK    4  A    between atoms: C_11  and  C_13 
REMARK    5  A    between atoms: C_18  and  C_25 
ROOT
HETATM    1  S   UNL     1     119.975 158.739 -28.004  1.00  0.00    -0.068 SA
HETATM    2  N   UNL     1     117.540 158.393 -27.435  1.00  0.00    -0.344 N 
HETATM    3  C   UNL     1     117.920 157.366 -28.265  1.00  0.00     0.053 A 
HETATM    4  C   UNL     1     118.574 159.272 -27.212  1.00  0.00     0.087 A 
HETATM    5  C   UNL     1     119.245 157.396 -28.681  1.00  0.00     0.057 A 
HETATM    6  C   UNL     1     119.801 156.421 -29.523  1.00  0.00     0.097 A 
HETATM    7  C   UNL     1     118.958 155.365 -29.956  1.00  0.00    -0.037 A 
HETATM    8  C   UNL     1     117.092 156.316 -28.689  1.00  0.00     0.031 A 
HETATM    9  C   UNL     1     116.194 158.440 -26.846  1.00  0.00     0.157 C 
HETATM   10  C   UNL     1     117.612 155.327 -29.531  1.00  0.00     0.011 A 
HETATM   11  C   UNL     1     119.466 154.275 -30.863  1.00  0.00     0.050 C 
ENDROOT
BRANCH   4  12
HETATM   12  C   UNL     1     118.560 160.553 -26.438  1.00  0.00    -0.001 A 
HETATM   13  C   UNL     1     119.400 161.647 -26.751  1.00  0.00     0.035 A 
HETATM   14  C   UNL     1     119.341 162.792 -25.962  1.00  0.00     0.034 A 
HETATM   15  S   UNL     1     120.215 164.202 -26.135  1.00  0.00    -0.069 SA
HETATM   16  C   UNL     1     118.501 162.910 -24.872  1.00  0.00     0.052 A 
HETATM   17  C   UNL     1     119.507 164.944 -24.780  1.00  0.00     0.087 A 
HETATM   18  N   UNL     1     118.568 164.112 -24.213  1.00  0.00    -0.344 N 
HETATM   19  C   UNL     1     117.672 164.417 -23.089  1.00  0.00     0.157 C 
HETATM   20  C   UNL     1     117.667 161.835 -24.534  1.00  0.00     0.032 A 
HETATM   21  C   UNL     1     117.710 160.663 -25.308  1.00  0.00     0.016 A 
BRANCH  17  22
HETATM   22  C   UNL     1     119.944 166.302 -24.325  1.00  0.00    -0.002 A 
HETATM   23  C   UNL     1     120.448 166.554 -23.036  1.00  0.00     0.016 A 
HETATM   24  C   UNL     1     120.866 167.833 -22.660  1.00  0.00     0.030 A 
HETATM   25  C   UNL     1     120.807 168.917 -23.563  1.00  0.00     0.029 A 
HETATM   26  C   UNL     1     120.323 168.656 -24.862  1.00  0.00     0.030 A 
HETATM   27  C   UNL     1     119.909 167.375 -25.235  1.00  0.00     0.016 A 
BRANCH  25  28
HETATM   28  N   UNL     1     121.240 170.239 -23.176  1.00  0.00    -0.390 N 
HETATM   29  C   UNL     1     122.486 170.794 -23.691  1.00  0.00     0.149 C 
HETATM   30  C   UNL     1     120.440 171.044 -22.262  1.00  0.00     0.149 C 
ENDBRANCH  25  28
ENDBRANCH  17  22
ENDBRANCH   4  12
BRANCH   6  31
HETATM   31  S   UNL     1     121.534 156.525 -30.027  1.00  0.00     0.131 S 
HETATM   32  O   UNL     1     121.760 157.540 -31.160  1.00  0.00    -0.598 OA
HETATM   33  O   UNL     1     122.407 157.127 -28.916  1.00  0.00    -0.598 OA
BRANCH  31  34
HETATM   34  O   UNL     1     122.385 155.112 -30.513  1.00  0.00    -0.292 OA
HETATM   35  H   UNL     1     123.344 155.344 -30.419  1.00  0.00     0.232 HD
ENDBRANCH  31  34
ENDBRANCH   6  31
TORSDOF 5
ENDMDL
