MODEL 1
REMARK VINA RESULT:      -5.2      0.000      0.000
REMARK  11 active torsions:
REMARK  status: ('A' for Active; 'I' for Inactive)
REMARK    1  A    between atoms: O_1  and  C_14 
REMARK    2  A    between atoms: C_3  and  C_4 
REMARK    3  A    between atoms: C_3  and  C_5 
REMARK    4  A    between atoms: C_4  and  C_6 
REMARK    5  A    between atoms: C_5  and  C_7 
REMARK    6  A    between atoms: C_6  and  C_8 
REMARK    7  A    between atoms: C_7  and  C_9 
REMARK    8  A    between atoms: C_8  and  C_10 
REMARK    9  A    between atoms: C_9  and  C_11 
REMARK   10  A    between atoms: C_10  and  C_12 
REMARK   11  A    between atoms: C_12  and  C_14 
ROOT
HETATM    1  O   UNL     1     124.039 137.815 -40.035  1.00  0.00    -0.776 OA
HETATM    2  H   UNL     1     124.452 137.078 -40.508  1.00  0.00     0.167 HD
ENDROOT
BRANCH   1   3
HETATM    3  C   UNL     1     124.511 138.242 -38.845  1.00  0.00     0.139 C 
HETATM    4  O   UNL     1     125.613 138.766 -38.781  1.00  0.00    -0.650 OA
BRANCH   3   5
HETATM    5  C   UNL     1     123.659 138.061 -37.615  1.00  0.00     0.110 C 
BRANCH   5   6
HETATM    6  C   UNL     1     123.598 139.317 -36.733  1.00  0.00     0.010 C 
BRANCH   6   7
HETATM    7  C   UNL     1     124.700 139.293 -35.667  1.00  0.00     0.001 C 
BRANCH   7   8
HETATM    8  C   UNL     1     124.956 140.699 -35.110  1.00  0.00     0.000 C 
BRANCH   8   9
HETATM    9  C   UNL     1     124.500 141.776 -36.101  1.00  0.00     0.000 C 
BRANCH   9  10
HETATM   10  C   UNL     1     125.027 143.157 -35.695  1.00  0.00     0.000 C 
BRANCH  10  11
HETATM   11  C   UNL     1     125.118 143.287 -34.170  1.00  0.00     0.000 C 
BRANCH  11  12
HETATM   12  C   UNL     1     125.754 144.623 -33.769  1.00  0.00     0.000 C 
BRANCH  12  13
HETATM   13  C   UNL     1     125.385 145.729 -34.766  1.00  0.00    -0.000 C 
BRANCH  13  14
HETATM   14  C   UNL     1     125.231 147.079 -34.056  1.00  0.00    -0.005 C 
HETATM   15  C   UNL     1     126.369 148.027 -34.425  1.00  0.00     0.005 C 
ENDBRANCH  13  14
ENDBRANCH  12  13
ENDBRANCH  11  12
ENDBRANCH  10  11
ENDBRANCH   9  10
ENDBRANCH   8   9
ENDBRANCH   7   8
ENDBRANCH   6   7
ENDBRANCH   5   6
ENDBRANCH   3   5
ENDBRANCH   1   3
TORSDOF 11
ENDMDL
MODEL 2
REMARK VINA RESULT:      -4.6      9.453     11.233
REMARK  11 active torsions:
REMARK  status: ('A' for Active; 'I' for Inactive)
REMARK    1  A    between atoms: O_1  and  C_14 
REMARK    2  A    between atoms: C_3  and  C_4 
REMARK    3  A    between atoms: C_3  and  C_5 
REMARK    4  A    between atoms: C_4  and  C_6 
REMARK    5  A    between atoms: C_5  and  C_7 
REMARK    6  A    between atoms: C_6  and  C_8 
REMARK    7  A    between atoms: C_7  and  C_9 
REMARK    8  A    between atoms: C_8  and  C_10 
REMARK    9  A    between atoms: C_9  and  C_11 
REMARK   10  A    between atoms: C_10  and  C_12 
REMARK   11  A    between atoms: C_12  and  C_14 
ROOT
HETATM    1  O   UNL     1     117.577 144.133 -33.130  1.00  0.00    -0.776 OA
HETATM    2  H   UNL     1     117.651 143.172 -33.227  1.00  0.00     0.167 HD
ENDROOT
BRANCH   1   3
HETATM    3  C   UNL     1     118.446 144.971 -33.733  1.00  0.00     0.139 C 
HETATM    4  O   UNL     1     119.406 144.517 -34.340  1.00  0.00    -0.650 OA
BRANCH   3   5
HETATM    5  C   UNL     1     118.209 146.457 -33.643  1.00  0.00     0.110 C 
BRANCH   5   6
HETATM    6  C   UNL     1     117.906 147.102 -35.004  1.00  0.00     0.010 C 
BRANCH   6   7
HETATM    7  C   UNL     1     116.663 147.995 -34.923  1.00  0.00     0.001 C 
BRANCH   7   8
HETATM    8  C   UNL     1     117.004 149.445 -35.289  1.00  0.00     0.000 C 
BRANCH   8   9
HETATM    9  C   UNL     1     116.224 150.432 -34.413  1.00  0.00     0.000 C 
BRANCH   9  10
HETATM   10  C   UNL     1     117.120 151.027 -33.320  1.00  0.00     0.000 C 
BRANCH  10  11
HETATM   11  C   UNL     1     116.931 150.289 -31.990  1.00  0.00     0.000 C 
BRANCH  11  12
HETATM   12  C   UNL     1     115.444 150.105 -31.669  1.00  0.00     0.000 C 
BRANCH  12  13
HETATM   13  C   UNL     1     115.145 148.657 -31.260  1.00  0.00    -0.000 C 
BRANCH  13  14
HETATM   14  C   UNL     1     114.025 148.063 -32.122  1.00  0.00    -0.005 C 
HETATM   15  C   UNL     1     114.318 146.608 -32.479  1.00  0.00     0.005 C 
ENDBRANCH  13  14
ENDBRANCH  12  13
ENDBRANCH  11  12
ENDBRANCH  10  11
ENDBRANCH   9  10
ENDBRANCH   8   9
ENDBRANCH   7   8
ENDBRANCH   6   7
ENDBRANCH   5   6
ENDBRANCH   3   5
ENDBRANCH   1   3
TORSDOF 11
ENDMDL
MODEL 3
REMARK VINA RESULT:      -4.4     12.659     14.205
REMARK  11 active torsions:
REMARK  status: ('A' for Active; 'I' for Inactive)
REMARK    1  A    between atoms: O_1  and  C_14 
REMARK    2  A    between atoms: C_3  and  C_4 
REMARK    3  A    between atoms: C_3  and  C_5 
REMARK    4  A    between atoms: C_4  and  C_6 
REMARK    5  A    between atoms: C_5  and  C_7 
REMARK    6  A    between atoms: C_6  and  C_8 
REMARK    7  A    between atoms: C_7  and  C_9 
REMARK    8  A    between atoms: C_8  and  C_10 
REMARK    9  A    between atoms: C_9  and  C_11 
REMARK   10  A    between atoms: C_10  and  C_12 
REMARK   11  A    between atoms: C_12  and  C_14 
ROOT
HETATM    1  O   UNL     1     113.872 147.847 -30.100  1.00  0.00    -0.776 OA
HETATM    2  H   UNL     1     114.497 148.173 -29.436  1.00  0.00     0.167 HD
ENDROOT
BRANCH   1   3
HETATM    3  C   UNL     1     114.135 147.941 -31.421  1.00  0.00     0.139 C 
HETATM    4  O   UNL     1     114.295 146.925 -32.082  1.00  0.00    -0.650 OA
BRANCH   3   5
HETATM    5  C   UNL     1     114.225 149.307 -32.052  1.00  0.00     0.110 C 
BRANCH   5   6
HETATM    6  C   UNL     1     114.955 150.331 -31.170  1.00  0.00     0.010 C 
BRANCH   6   7
HETATM    7  C   UNL     1     116.473 150.241 -31.367  1.00  0.00     0.001 C 
BRANCH   7   8
HETATM    8  C   UNL     1     116.862 150.603 -32.806  1.00  0.00     0.000 C 
BRANCH   8   9
HETATM    9  C   UNL     1     118.133 151.460 -32.834  1.00  0.00     0.000 C 
BRANCH   9  10
HETATM   10  C   UNL     1     117.795 152.952 -32.733  1.00  0.00     0.000 C 
BRANCH  10  11
HETATM   11  C   UNL     1     118.469 153.590 -31.513  1.00  0.00     0.000 C 
BRANCH  11  12
HETATM   12  C   UNL     1     117.444 154.317 -30.636  1.00  0.00     0.000 C 
BRANCH  12  13
HETATM   13  C   UNL     1     116.013 153.915 -31.014  1.00  0.00    -0.000 C 
BRANCH  13  14
HETATM   14  C   UNL     1     115.145 153.734 -29.763  1.00  0.00    -0.005 C 
HETATM   15  C   UNL     1     113.664 153.669 -30.125  1.00  0.00     0.005 C 
ENDBRANCH  13  14
ENDBRANCH  12  13
ENDBRANCH  11  12
ENDBRANCH  10  11
ENDBRANCH   9  10
ENDBRANCH   8   9
ENDBRANCH   7   8
ENDBRANCH   6   7
ENDBRANCH   5   6
ENDBRANCH   3   5
ENDBRANCH   1   3
TORSDOF 11
ENDMDL
MODEL 4
REMARK VINA RESULT:      -4.4      9.618     10.877
REMARK  11 active torsions:
REMARK  status: ('A' for Active; 'I' for Inactive)
REMARK    1  A    between atoms: O_1  and  C_14 
REMARK    2  A    between atoms: C_3  and  C_4 
REMARK    3  A    between atoms: C_3  and  C_5 
REMARK    4  A    between atoms: C_4  and  C_6 
REMARK    5  A    between atoms: C_5  and  C_7 
REMARK    6  A    between atoms: C_6  and  C_8 
REMARK    7  A    between atoms: C_7  and  C_9 
REMARK    8  A    between atoms: C_8  and  C_10 
REMARK    9  A    between atoms: C_9  and  C_11 
REMARK   10  A    between atoms: C_10  and  C_12 
REMARK   11  A    between atoms: C_12  and  C_14 
ROOT
HETATM    1  O   UNL     1     118.568 144.047 -33.234  1.00  0.00    -0.776 OA
HETATM    2  H   UNL     1     117.892 143.363 -33.128  1.00  0.00     0.167 HD
ENDROOT
BRANCH   1   3
HETATM    3  C   UNL     1     118.356 145.134 -34.006  1.00  0.00     0.139 C 
HETATM    4  O   UNL     1     118.884 146.198 -33.713  1.00  0.00    -0.650 OA
BRANCH   3   5
HETATM    5  C   UNL     1     117.467 145.009 -35.216  1.00  0.00     0.110 C 
BRANCH   5   6
HETATM    6  C   UNL     1     117.035 143.562 -35.499  1.00  0.00     0.010 C 
BRANCH   6   7
HETATM    7  C   UNL     1     116.553 143.406 -36.945  1.00  0.00     0.001 C 
BRANCH   7   8
HETATM    8  C   UNL     1     116.366 141.927 -37.306  1.00  0.00     0.000 C 
BRANCH   8   9
HETATM    9  C   UNL     1     114.992 141.684 -37.941  1.00  0.00     0.000 C 
BRANCH   9  10
HETATM   10  C   UNL     1     114.199 140.635 -37.153  1.00  0.00     0.000 C 
BRANCH  10  11
HETATM   11  C   UNL     1     114.298 140.887 -35.644  1.00  0.00     0.000 C 
BRANCH  11  12
HETATM   12  C   UNL     1     113.111 141.720 -35.146  1.00  0.00     0.000 C 
BRANCH  12  13
HETATM   13  C   UNL     1     113.538 143.163 -34.849  1.00  0.00    -0.000 C 
BRANCH  13  14
HETATM   14  C   UNL     1     113.204 143.547 -33.403  1.00  0.00    -0.005 C 
HETATM   15  C   UNL     1     113.921 144.831 -32.994  1.00  0.00     0.005 C 
ENDBRANCH  13  14
ENDBRANCH  12  13
ENDBRANCH  11  12
ENDBRANCH  10  11
ENDBRANCH   9  10
ENDBRANCH   8   9
ENDBRANCH   7   8
ENDBRANCH   6   7
ENDBRANCH   5   6
ENDBRANCH   3   5
ENDBRANCH   1   3
TORSDOF 11
ENDMDL
MODEL 5
REMARK VINA RESULT:      -4.4     21.473     23.394
REMARK  11 active torsions:
REMARK  status: ('A' for Active; 'I' for Inactive)
REMARK    1  A    between atoms: O_1  and  C_14 
REMARK    2  A    between atoms: C_3  and  C_4 
REMARK    3  A    between atoms: C_3  and  C_5 
REMARK    4  A    between atoms: C_4  and  C_6 
REMARK    5  A    between atoms: C_5  and  C_7 
REMARK    6  A    between atoms: C_6  and  C_8 
REMARK    7  A    between atoms: C_7  and  C_9 
REMARK    8  A    between atoms: C_8  and  C_10 
REMARK    9  A    between atoms: C_9  and  C_11 
REMARK   10  A    between atoms: C_10  and  C_12 
REMARK   11  A    between atoms: C_12  and  C_14 
ROOT
HETATM    1  O   UNL     1     121.969 161.539 -24.630  1.00  0.00    -0.776 OA
HETATM    2  H   UNL     1     121.716 160.762 -25.148  1.00  0.00     0.167 HD
ENDROOT
BRANCH   1   3
HETATM    3  C   UNL     1     121.680 162.790 -25.048  1.00  0.00     0.139 C 
HETATM    4  O   UNL     1     122.573 163.618 -25.147  1.00  0.00    -0.650 OA
BRANCH   3   5
HETATM    5  C   UNL     1     120.252 163.135 -25.385  1.00  0.00     0.110 C 
BRANCH   5   6
HETATM    6  C   UNL     1     119.933 162.986 -26.881  1.00  0.00     0.010 C 
BRANCH   6   7
HETATM    7  C   UNL     1     121.066 162.259 -27.614  1.00  0.00     0.001 C 
BRANCH   7   8
HETATM    8  C   UNL     1     120.540 161.014 -28.340  1.00  0.00     0.000 C 
BRANCH   8   9
HETATM    9  C   UNL     1     119.943 160.009 -27.347  1.00  0.00     0.000 C 
BRANCH   9  10
HETATM   10  C   UNL     1     118.516 159.619 -27.749  1.00  0.00     0.000 C 
BRANCH  10  11
HETATM   11  C   UNL     1     117.792 158.912 -26.597  1.00  0.00     0.000 C 
BRANCH  11  12
HETATM   12  C   UNL     1     116.736 159.827 -25.968  1.00  0.00     0.000 C 
BRANCH  12  13
HETATM   13  C   UNL     1     117.357 160.723 -24.889  1.00  0.00    -0.000 C 
BRANCH  13  14
HETATM   14  C   UNL     1     116.780 162.142 -24.953  1.00  0.00    -0.005 C 
HETATM   15  C   UNL     1     115.413 162.150 -25.631  1.00  0.00     0.005 C 
ENDBRANCH  13  14
ENDBRANCH  12  13
ENDBRANCH  11  12
ENDBRANCH  10  11
ENDBRANCH   9  10
ENDBRANCH   8   9
ENDBRANCH   7   8
ENDBRANCH   6   7
ENDBRANCH   5   6
ENDBRANCH   3   5
ENDBRANCH   1   3
TORSDOF 11
ENDMDL
MODEL 6
REMARK VINA RESULT:      -4.3     20.190     22.407
REMARK  11 active torsions:
REMARK  status: ('A' for Active; 'I' for Inactive)
REMARK    1  A    between atoms: O_1  and  C_14 
REMARK    2  A    between atoms: C_3  and  C_4 
REMARK    3  A    between atoms: C_3  and  C_5 
REMARK    4  A    between atoms: C_4  and  C_6 
REMARK    5  A    between atoms: C_5  and  C_7 
REMARK    6  A    between atoms: C_6  and  C_8 
REMARK    7  A    between atoms: C_7  and  C_9 
REMARK    8  A    between atoms: C_8  and  C_10 
REMARK    9  A    between atoms: C_9  and  C_11 
REMARK   10  A    between atoms: C_10  and  C_12 
REMARK   11  A    between atoms: C_12  and  C_14 
ROOT
HETATM    1  O   UNL     1     116.877 157.600 -25.194  1.00  0.00    -0.776 OA
HETATM    2  H   UNL     1     116.386 158.261 -24.684  1.00  0.00     0.167 HD
ENDROOT
BRANCH   1   3
HETATM    3  C   UNL     1     116.914 157.636 -26.543  1.00  0.00     0.139 C 
HETATM    4  O   UNL     1     116.427 156.718 -27.187  1.00  0.00    -0.650 OA
BRANCH   3   5
HETATM    5  C   UNL     1     117.561 158.813 -27.224  1.00  0.00     0.110 C 
BRANCH   5   6
HETATM    6  C   UNL     1     119.096 158.753 -27.203  1.00  0.00     0.010 C 
BRANCH   6   7
HETATM    7  C   UNL     1     119.695 159.634 -28.306  1.00  0.00     0.001 C 
BRANCH   7   8
HETATM    8  C   UNL     1     120.010 161.039 -27.776  1.00  0.00     0.000 C 
BRANCH   8   9
HETATM    9  C   UNL     1     119.010 162.068 -28.316  1.00  0.00     0.000 C 
BRANCH   9  10
HETATM   10  C   UNL     1     119.168 163.416 -27.604  1.00  0.00     0.000 C 
BRANCH  10  11
HETATM   11  C   UNL     1     119.925 163.256 -26.280  1.00  0.00     0.000 C 
BRANCH  11  12
HETATM   12  C   UNL     1     119.362 164.195 -25.208  1.00  0.00     0.000 C 
BRANCH  12  13
HETATM   13  C   UNL     1     118.264 163.502 -24.392  1.00  0.00    -0.000 C 
BRANCH  13  14
HETATM   14  C   UNL     1     118.535 161.998 -24.272  1.00  0.00    -0.005 C 
HETATM   15  C   UNL     1     117.257 161.189 -24.481  1.00  0.00     0.005 C 
ENDBRANCH  13  14
ENDBRANCH  12  13
ENDBRANCH  11  12
ENDBRANCH  10  11
ENDBRANCH   9  10
ENDBRANCH   8   9
ENDBRANCH   7   8
ENDBRANCH   6   7
ENDBRANCH   5   6
ENDBRANCH   3   5
ENDBRANCH   1   3
TORSDOF 11
ENDMDL
MODEL 7
REMARK VINA RESULT:      -4.3     12.531     15.799
REMARK  11 active torsions:
REMARK  status: ('A' for Active; 'I' for Inactive)
REMARK    1  A    between atoms: O_1  and  C_14 
REMARK    2  A    between atoms: C_3  and  C_4 
REMARK    3  A    between atoms: C_3  and  C_5 
REMARK    4  A    between atoms: C_4  and  C_6 
REMARK    5  A    between atoms: C_5  and  C_7 
REMARK    6  A    between atoms: C_6  and  C_8 
REMARK    7  A    between atoms: C_7  and  C_9 
REMARK    8  A    between atoms: C_8  and  C_10 
REMARK    9  A    between atoms: C_9  and  C_11 
REMARK   10  A    between atoms: C_10  and  C_12 
REMARK   11  A    between atoms: C_12  and  C_14 
ROOT
HETATM    1  O   UNL     1     121.520 151.614 -32.818  1.00  0.00    -0.776 OA
HETATM    2  H   UNL     1     122.466 151.410 -32.832  1.00  0.00     0.167 HD
ENDROOT
BRANCH   1   3
HETATM    3  C   UNL     1     121.022 152.603 -32.045  1.00  0.00     0.139 C 
HETATM    4  O   UNL     1     121.548 152.856 -30.971  1.00  0.00    -0.650 OA
BRANCH   3   5
HETATM    5  C   UNL     1     119.822 153.374 -32.529  1.00  0.00     0.110 C 
BRANCH   5   6
HETATM    6  C   UNL     1     118.962 153.930 -31.383  1.00  0.00     0.010 C 
BRANCH   6   7
HETATM    7  C   UNL     1     117.570 154.331 -31.887  1.00  0.00     0.001 C 
BRANCH   7   8
HETATM    8  C   UNL     1     116.502 154.062 -30.820  1.00  0.00     0.000 C 
BRANCH   8   9
HETATM    9  C   UNL     1     117.061 154.289 -29.410  1.00  0.00     0.000 C 
BRANCH   9  10
HETATM   10  C   UNL     1     116.013 154.935 -28.498  1.00  0.00     0.000 C 
BRANCH  10  11
HETATM   11  C   UNL     1     116.537 156.244 -27.896  1.00  0.00     0.000 C 
BRANCH  11  12
HETATM   12  C   UNL     1     117.836 156.683 -28.581  1.00  0.00     0.000 C 
BRANCH  12  13
HETATM   13  C   UNL     1     117.624 157.970 -29.389  1.00  0.00    -0.000 C 
BRANCH  13  14
HETATM   14  C   UNL     1     118.372 157.909 -30.725  1.00  0.00    -0.005 C 
HETATM   15  C   UNL     1     119.828 157.501 -30.524  1.00  0.00     0.005 C 
ENDBRANCH  13  14
ENDBRANCH  12  13
ENDBRANCH  11  12
ENDBRANCH  10  11
ENDBRANCH   9  10
ENDBRANCH   8   9
ENDBRANCH   7   8
ENDBRANCH   6   7
ENDBRANCH   5   6
ENDBRANCH   3   5
ENDBRANCH   1   3
TORSDOF 11
ENDMDL
MODEL 8
REMARK VINA RESULT:      -4.3     15.678     18.088
REMARK  11 active torsions:
REMARK  status: ('A' for Active; 'I' for Inactive)
REMARK    1  A    between atoms: O_1  and  C_14 
REMARK    2  A    between atoms: C_3  and  C_4 
REMARK    3  A    between atoms: C_3  and  C_5 
REMARK    4  A    between atoms: C_4  and  C_6 
REMARK    5  A    between atoms: C_5  and  C_7 
REMARK    6  A    between atoms: C_6  and  C_8 
REMARK    7  A    between atoms: C_7  and  C_9 
REMARK    8  A    between atoms: C_8  and  C_10 
REMARK    9  A    between atoms: C_9  and  C_11 
REMARK   10  A    between atoms: C_10  and  C_12 
REMARK   11  A    between atoms: C_12  and  C_14 
ROOT
HETATM    1  O   UNL     1     117.699 154.390 -30.614  1.00  0.00    -0.776 OA
HETATM    2  H   UNL     1     116.854 154.765 -30.901  1.00  0.00     0.167 HD
ENDROOT
BRANCH   1   3
HETATM    3  C   UNL     1     117.798 153.660 -29.483  1.00  0.00     0.139 C 
HETATM    4  O   UNL     1     118.829 153.049 -29.243  1.00  0.00    -0.650 OA
BRANCH   3   5
HETATM    5  C   UNL     1     116.625 153.615 -28.538  1.00  0.00     0.110 C 
BRANCH   5   6
HETATM    6  C   UNL     1     115.748 154.875 -28.607  1.00  0.00     0.010 C 
BRANCH   6   7
HETATM    7  C   UNL     1     116.158 155.889 -27.533  1.00  0.00     0.001 C 
BRANCH   7   8
HETATM    8  C   UNL     1     115.457 157.235 -27.751  1.00  0.00     0.000 C 
BRANCH   8   9
HETATM    9  C   UNL     1     116.253 158.381 -27.115  1.00  0.00     0.000 C 
BRANCH   9  10
HETATM   10  C   UNL     1     117.566 157.870 -26.510  1.00  0.00     0.000 C 
BRANCH  10  11
HETATM   11  C   UNL     1     118.763 158.674 -27.032  1.00  0.00     0.000 C 
BRANCH  11  12
HETATM   12  C   UNL     1     119.906 157.746 -27.456  1.00  0.00     0.000 C 
BRANCH  12  13
HETATM   13  C   UNL     1     119.479 156.844 -28.621  1.00  0.00    -0.000 C 
BRANCH  13  14
HETATM   14  C   UNL     1     119.588 157.584 -29.958  1.00  0.00    -0.005 C 
HETATM   15  C   UNL     1     118.208 157.896 -30.531  1.00  0.00     0.005 C 
ENDBRANCH  13  14
ENDBRANCH  12  13
ENDBRANCH  11  12
ENDBRANCH  10  11
ENDBRANCH   9  10
ENDBRANCH   8   9
ENDBRANCH   7   8
ENDBRANCH   6   7
ENDBRANCH   5   6
ENDBRANCH   3   5
ENDBRANCH   1   3
TORSDOF 11
ENDMDL
MODEL 9
REMARK VINA RESULT:      -4.3     10.675     11.700
REMARK  11 active torsions:
REMARK  status: ('A' for Active; 'I' for Inactive)
REMARK    1  A    between atoms: O_1  and  C_14 
REMARK    2  A    between atoms: C_3  and  C_4 
REMARK    3  A    between atoms: C_3  and  C_5 
REMARK    4  A    between atoms: C_4  and  C_6 
REMARK    5  A    between atoms: C_5  and  C_7 
REMARK    6  A    between atoms: C_6  and  C_8 
REMARK    7  A    between atoms: C_7  and  C_9 
REMARK    8  A    between atoms: C_8  and  C_10 
REMARK    9  A    between atoms: C_9  and  C_11 
REMARK   10  A    between atoms: C_10  and  C_12 
REMARK   11  A    between atoms: C_12  and  C_14 
ROOT
HETATM    1  O   UNL     1     113.002 143.648 -33.015  1.00  0.00    -0.776 OA
HETATM    2  H   UNL     1     112.254 143.068 -32.813  1.00  0.00     0.167 HD
ENDROOT
BRANCH   1   3
HETATM    3  C   UNL     1     113.477 143.773 -34.273  1.00  0.00     0.139 C 
HETATM    4  O   UNL     1     113.498 142.800 -35.013  1.00  0.00    -0.650 OA
BRANCH   3   5
HETATM    5  C   UNL     1     113.972 145.119 -34.735  1.00  0.00     0.110 C 
BRANCH   5   6
HETATM    6  C   UNL     1     115.059 145.021 -35.817  1.00  0.00     0.010 C 
BRANCH   6   7
HETATM    7  C   UNL     1     115.827 146.342 -35.945  1.00  0.00     0.001 C 
BRANCH   7   8
HETATM    8  C   UNL     1     116.267 146.858 -34.569  1.00  0.00     0.000 C 
BRANCH   8   9
HETATM    9  C   UNL     1     117.636 147.543 -34.650  1.00  0.00     0.000 C 
BRANCH   9  10
HETATM   10  C   UNL     1     117.485 149.063 -34.780  1.00  0.00     0.000 C 
BRANCH  10  11
HETATM   11  C   UNL     1     116.137 149.533 -34.221  1.00  0.00     0.000 C 
BRANCH  11  12
HETATM   12  C   UNL     1     116.311 150.198 -32.851  1.00  0.00     0.000 C 
BRANCH  12  13
HETATM   13  C   UNL     1     115.247 149.707 -31.862  1.00  0.00    -0.000 C 
BRANCH  13  14
HETATM   14  C   UNL     1     114.185 148.860 -32.573  1.00  0.00    -0.005 C 
HETATM   15  C   UNL     1     112.798 149.479 -32.429  1.00  0.00     0.005 C 
ENDBRANCH  13  14
ENDBRANCH  12  13
ENDBRANCH  11  12
ENDBRANCH  10  11
ENDBRANCH   9  10
ENDBRANCH   8   9
ENDBRANCH   7   8
ENDBRANCH   6   7
ENDBRANCH   5   6
ENDBRANCH   3   5
ENDBRANCH   1   3
TORSDOF 11
ENDMDL
MODEL 10
REMARK VINA RESULT:      -4.3      8.991     11.848
REMARK  11 active torsions:
REMARK  status: ('A' for Active; 'I' for Inactive)
REMARK    1  A    between atoms: O_1  and  C_14 
REMARK    2  A    between atoms: C_3  and  C_4 
REMARK    3  A    between atoms: C_3  and  C_5 
REMARK    4  A    between atoms: C_4  and  C_6 
REMARK    5  A    between atoms: C_5  and  C_7 
REMARK    6  A    between atoms: C_6  and  C_8 
REMARK    7  A    between atoms: C_7  and  C_9 
REMARK    8  A    between atoms: C_8  and  C_10 
REMARK    9  A    between atoms: C_9  and  C_11 
REMARK   10  A    between atoms: C_10  and  C_12 
REMARK   11  A    between atoms: C_12  and  C_14 
ROOT
HETATM    1  O   UNL     1     118.266 144.061 -33.254  1.00  0.00    -0.776 OA
HETATM    2  H   UNL     1     118.536 143.134 -33.187  1.00  0.00     0.167 HD
ENDROOT
BRANCH   1   3
HETATM    3  C   UNL     1     118.510 144.788 -34.365  1.00  0.00     0.139 C 
HETATM    4  O   UNL     1     119.423 145.602 -34.369  1.00  0.00    -0.650 OA
BRANCH   3   5
HETATM    5  C   UNL     1     117.645 144.577 -35.580  1.00  0.00     0.110 C 
BRANCH   5   6
HETATM    6  C   UNL     1     117.886 143.222 -36.263  1.00  0.00     0.010 C 
BRANCH   6   7
HETATM    7  C   UNL     1     116.804 142.209 -35.869  1.00  0.00     0.001 C 
BRANCH   7   8
HETATM    8  C   UNL     1     115.450 142.586 -36.481  1.00  0.00     0.000 C 
BRANCH   8   9
HETATM    9  C   UNL     1     115.412 142.260 -37.979  1.00  0.00     0.000 C 
BRANCH   9  10
HETATM   10  C   UNL     1     114.460 141.094 -38.266  1.00  0.00     0.000 C 
BRANCH  10  11
HETATM   11  C   UNL     1     115.178 139.967 -39.018  1.00  0.00     0.000 C 
BRANCH  11  12
HETATM   12  C   UNL     1     114.450 138.631 -38.833  1.00  0.00     0.000 C 
BRANCH  12  13
HETATM   13  C   UNL     1     114.919 137.602 -39.869  1.00  0.00    -0.000 C 
BRANCH  13  14
HETATM   14  C   UNL     1     113.727 136.981 -40.605  1.00  0.00    -0.005 C 
HETATM   15  C   UNL     1     113.968 136.944 -42.111  1.00  0.00     0.005 C 
ENDBRANCH  13  14
ENDBRANCH  12  13
ENDBRANCH  11  12
ENDBRANCH  10  11
ENDBRANCH   9  10
ENDBRANCH   8   9
ENDBRANCH   7   8
ENDBRANCH   6   7
ENDBRANCH   5   6
ENDBRANCH   3   5
ENDBRANCH   1   3
TORSDOF 11
ENDMDL
MODEL 11
REMARK VINA RESULT:      -4.1     20.770     24.256
REMARK  11 active torsions:
REMARK  status: ('A' for Active; 'I' for Inactive)
REMARK    1  A    between atoms: O_1  and  C_14 
REMARK    2  A    between atoms: C_3  and  C_4 
REMARK    3  A    between atoms: C_3  and  C_5 
REMARK    4  A    between atoms: C_4  and  C_6 
REMARK    5  A    between atoms: C_5  and  C_7 
REMARK    6  A    between atoms: C_6  and  C_8 
REMARK    7  A    between atoms: C_7  and  C_9 
REMARK    8  A    between atoms: C_8  and  C_10 
REMARK    9  A    between atoms: C_9  and  C_11 
REMARK   10  A    between atoms: C_10  and  C_12 
REMARK   11  A    between atoms: C_12  and  C_14 
ROOT
HETATM    1  O   UNL     1     121.777 158.899 -27.651  1.00  0.00    -0.776 OA
HETATM    2  H   UNL     1     121.181 158.137 -27.684  1.00  0.00     0.167 HD
ENDROOT
BRANCH   1   3
HETATM    3  C   UNL     1     121.341 160.120 -27.276  1.00  0.00     0.139 C 
HETATM    4  O   UNL     1     121.324 160.422 -26.092  1.00  0.00    -0.650 OA
BRANCH   3   5
HETATM    5  C   UNL     1     120.880 161.088 -28.336  1.00  0.00     0.110 C 
BRANCH   5   6
HETATM    6  C   UNL     1     119.354 161.266 -28.366  1.00  0.00     0.010 C 
BRANCH   6   7
HETATM    7  C   UNL     1     118.975 162.751 -28.396  1.00  0.00     0.001 C 
BRANCH   7   8
HETATM    8  C   UNL     1     118.859 163.317 -26.976  1.00  0.00     0.000 C 
BRANCH   8   9
HETATM    9  C   UNL     1     118.109 162.347 -26.055  1.00  0.00     0.000 C 
BRANCH   9  10
HETATM   10  C   UNL     1     118.727 162.328 -24.653  1.00  0.00     0.000 C 
BRANCH  10  11
HETATM   11  C   UNL     1     117.997 163.298 -23.715  1.00  0.00     0.000 C 
BRANCH  11  12
HETATM   12  C   UNL     1     118.740 164.635 -23.620  1.00  0.00     0.000 C 
BRANCH  12  13
HETATM   13  C   UNL     1     117.755 165.811 -23.608  1.00  0.00    -0.000 C 
BRANCH  13  14
HETATM   14  C   UNL     1     117.940 166.669 -22.351  1.00  0.00    -0.005 C 
HETATM   15  C   UNL     1     119.354 166.532 -21.793  1.00  0.00     0.005 C 
ENDBRANCH  13  14
ENDBRANCH  12  13
ENDBRANCH  11  12
ENDBRANCH  10  11
ENDBRANCH   9  10
ENDBRANCH   8   9
ENDBRANCH   7   8
ENDBRANCH   6   7
ENDBRANCH   5   6
ENDBRANCH   3   5
ENDBRANCH   1   3
TORSDOF 11
ENDMDL
MODEL 12
REMARK VINA RESULT:      -4.1     10.796     12.982
REMARK  11 active torsions:
REMARK  status: ('A' for Active; 'I' for Inactive)
REMARK    1  A    between atoms: O_1  and  C_14 
REMARK    2  A    between atoms: C_3  and  C_4 
REMARK    3  A    between atoms: C_3  and  C_5 
REMARK    4  A    between atoms: C_4  and  C_6 
REMARK    5  A    between atoms: C_5  and  C_7 
REMARK    6  A    between atoms: C_6  and  C_8 
REMARK    7  A    between atoms: C_7  and  C_9 
REMARK    8  A    between atoms: C_8  and  C_10 
REMARK    9  A    between atoms: C_9  and  C_11 
REMARK   10  A    between atoms: C_10  and  C_12 
REMARK   11  A    between atoms: C_12  and  C_14 
ROOT
HETATM    1  O   UNL     1     114.203 146.986 -31.630  1.00  0.00    -0.776 OA
HETATM    2  H   UNL     1     114.907 146.511 -32.094  1.00  0.00     0.167 HD
ENDROOT
BRANCH   1   3
HETATM    3  C   UNL     1     114.192 148.333 -31.555  1.00  0.00     0.139 C 
HETATM    4  O   UNL     1     113.220 148.955 -31.958  1.00  0.00    -0.650 OA
BRANCH   3   5
HETATM    5  C   UNL     1     115.387 149.042 -30.973  1.00  0.00     0.110 C 
BRANCH   5   6
HETATM    6  C   UNL     1     115.308 150.570 -31.113  1.00  0.00     0.010 C 
BRANCH   6   7
HETATM    7  C   UNL     1     116.506 151.112 -31.902  1.00  0.00     0.001 C 
BRANCH   7   8
HETATM    8  C   UNL     1     117.097 150.030 -32.814  1.00  0.00     0.000 C 
BRANCH   8   9
HETATM    9  C   UNL     1     116.475 150.089 -34.214  1.00  0.00     0.000 C 
BRANCH   9  10
HETATM   10  C   UNL     1     116.872 148.864 -35.046  1.00  0.00     0.000 C 
BRANCH  10  11
HETATM   11  C   UNL     1     117.443 147.754 -34.156  1.00  0.00     0.000 C 
BRANCH  11  12
HETATM   12  C   UNL     1     116.556 146.505 -34.197  1.00  0.00     0.000 C 
BRANCH  12  13
HETATM   13  C   UNL     1     115.919 146.329 -35.581  1.00  0.00    -0.000 C 
BRANCH  13  14
HETATM   14  C   UNL     1     116.669 145.273 -36.401  1.00  0.00    -0.005 C 
HETATM   15  C   UNL     1     115.853 144.834 -37.613  1.00  0.00     0.005 C 
ENDBRANCH  13  14
ENDBRANCH  12  13
ENDBRANCH  11  12
ENDBRANCH  10  11
ENDBRANCH   9  10
ENDBRANCH   8   9
ENDBRANCH   7   8
ENDBRANCH   6   7
ENDBRANCH   5   6
ENDBRANCH   3   5
ENDBRANCH   1   3
TORSDOF 11
ENDMDL
MODEL 13
REMARK VINA RESULT:      -4.1     19.913     23.730
REMARK  11 active torsions:
REMARK  status: ('A' for Active; 'I' for Inactive)
REMARK    1  A    between atoms: O_1  and  C_14 
REMARK    2  A    between atoms: C_3  and  C_4 
REMARK    3  A    between atoms: C_3  and  C_5 
REMARK    4  A    between atoms: C_4  and  C_6 
REMARK    5  A    between atoms: C_5  and  C_7 
REMARK    6  A    between atoms: C_6  and  C_8 
REMARK    7  A    between atoms: C_7  and  C_9 
REMARK    8  A    between atoms: C_8  and  C_10 
REMARK    9  A    between atoms: C_9  and  C_11 
REMARK   10  A    between atoms: C_10  and  C_12 
REMARK   11  A    between atoms: C_12  and  C_14 
ROOT
HETATM    1  O   UNL     1     123.313 160.593 -29.287  1.00  0.00    -0.776 OA
HETATM    2  H   UNL     1     123.755 160.210 -30.058  1.00  0.00     0.167 HD
ENDROOT
BRANCH   1   3
HETATM    3  C   UNL     1     122.437 159.879 -28.549  1.00  0.00     0.139 C 
HETATM    4  O   UNL     1     122.235 158.704 -28.816  1.00  0.00    -0.650 OA
BRANCH   3   5
HETATM    5  C   UNL     1     121.723 160.555 -27.407  1.00  0.00     0.110 C 
BRANCH   5   6
HETATM    6  C   UNL     1     120.261 160.107 -27.260  1.00  0.00     0.010 C 
BRANCH   6   7
HETATM    7  C   UNL     1     119.327 161.006 -28.077  1.00  0.00     0.001 C 
BRANCH   7   8
HETATM    8  C   UNL     1     119.869 162.439 -28.152  1.00  0.00     0.000 C 
BRANCH   8   9
HETATM    9  C   UNL     1     119.115 163.363 -27.188  1.00  0.00     0.000 C 
BRANCH   9  10
HETATM   10  C   UNL     1     119.659 163.233 -25.760  1.00  0.00     0.000 C 
BRANCH  10  11
HETATM   11  C   UNL     1     119.441 164.526 -24.967  1.00  0.00     0.000 C 
BRANCH  11  12
HETATM   12  C   UNL     1     120.213 165.693 -25.594  1.00  0.00     0.000 C 
BRANCH  12  13
HETATM   13  C   UNL     1     119.498 167.026 -25.337  1.00  0.00    -0.000 C 
BRANCH  13  14
HETATM   14  C   UNL     1     120.459 168.057 -24.735  1.00  0.00    -0.005 C 
HETATM   15  C   UNL     1     120.265 168.177 -23.226  1.00  0.00     0.005 C 
ENDBRANCH  13  14
ENDBRANCH  12  13
ENDBRANCH  11  12
ENDBRANCH  10  11
ENDBRANCH   9  10
ENDBRANCH   8   9
ENDBRANCH   7   8
ENDBRANCH   6   7
ENDBRANCH   5   6
ENDBRANCH   3   5
ENDBRANCH   1   3
TORSDOF 11
ENDMDL
MODEL 14
REMARK VINA RESULT:      -4.1     11.347     13.609
REMARK  11 active torsions:
REMARK  status: ('A' for Active; 'I' for Inactive)
REMARK    1  A    between atoms: O_1  and  C_14 
REMARK    2  A    between atoms: C_3  and  C_4 
REMARK    3  A    between atoms: C_3  and  C_5 
REMARK    4  A    between atoms: C_4  and  C_6 
REMARK    5  A    between atoms: C_5  and  C_7 
REMARK    6  A    between atoms: C_6  and  C_8 
REMARK    7  A    between atoms: C_7  and  C_9 
REMARK    8  A    between atoms: C_8  and  C_10 
REMARK    9  A    between atoms: C_9  and  C_11 
REMARK   10  A    between atoms: C_10  and  C_12 
REMARK   11  A    between atoms: C_12  and  C_14 
ROOT
HETATM    1  O   UNL     1     118.407 150.456 -33.066  1.00  0.00    -0.776 OA
HETATM    2  H   UNL     1     118.027 150.624 -32.192  1.00  0.00     0.167 HD
ENDROOT
BRANCH   1   3
HETATM    3  C   UNL     1     117.802 149.636 -33.952  1.00  0.00     0.139 C 
HETATM    4  O   UNL     1     118.478 148.961 -34.715  1.00  0.00    -0.650 OA
BRANCH   3   5
HETATM    5  C   UNL     1     116.296 149.573 -33.977  1.00  0.00     0.110 C 
BRANCH   5   6
HETATM    6  C   UNL     1     115.725 148.453 -33.093  1.00  0.00     0.010 C 
BRANCH   6   7
HETATM    7  C   UNL     1     115.731 148.864 -31.616  1.00  0.00     0.001 C 
BRANCH   7   8
HETATM    8  C   UNL     1     114.837 150.087 -31.382  1.00  0.00     0.000 C 
BRANCH   8   9
HETATM    9  C   UNL     1     115.636 151.244 -30.769  1.00  0.00     0.000 C 
BRANCH   9  10
HETATM   10  C   UNL     1     115.108 151.602 -29.375  1.00  0.00     0.000 C 
BRANCH  10  11
HETATM   11  C   UNL     1     115.540 153.015 -28.968  1.00  0.00     0.000 C 
BRANCH  11  12
HETATM   12  C   UNL     1     115.905 153.855 -30.197  1.00  0.00     0.000 C 
BRANCH  12  13
HETATM   13  C   UNL     1     117.267 154.536 -30.014  1.00  0.00    -0.000 C 
BRANCH  13  14
HETATM   14  C   UNL     1     117.938 154.795 -31.367  1.00  0.00    -0.005 C 
HETATM   15  C   UNL     1     117.049 154.338 -32.520  1.00  0.00     0.005 C 
ENDBRANCH  13  14
ENDBRANCH  12  13
ENDBRANCH  11  12
ENDBRANCH  10  11
ENDBRANCH   9  10
ENDBRANCH   8   9
ENDBRANCH   7   8
ENDBRANCH   6   7
ENDBRANCH   5   6
ENDBRANCH   3   5
ENDBRANCH   1   3
TORSDOF 11
ENDMDL
MODEL 15
REMARK VINA RESULT:      -4.1      8.771     11.845
REMARK  11 active torsions:
REMARK  status: ('A' for Active; 'I' for Inactive)
REMARK    1  A    between atoms: O_1  and  C_14 
REMARK    2  A    between atoms: C_3  and  C_4 
REMARK    3  A    between atoms: C_3  and  C_5 
REMARK    4  A    between atoms: C_4  and  C_6 
REMARK    5  A    between atoms: C_5  and  C_7 
REMARK    6  A    between atoms: C_6  and  C_8 
REMARK    7  A    between atoms: C_7  and  C_9 
REMARK    8  A    between atoms: C_8  and  C_10 
REMARK    9  A    between atoms: C_9  and  C_11 
REMARK   10  A    between atoms: C_10  and  C_12 
REMARK   11  A    between atoms: C_12  and  C_14 
ROOT
HETATM    1  O   UNL     1     119.704 138.293 -38.990  1.00  0.00    -0.776 OA
HETATM    2  H   UNL     1     120.011 138.654 -39.834  1.00  0.00     0.167 HD
ENDROOT
BRANCH   1   3
HETATM    3  C   UNL     1     118.453 138.524 -38.538  1.00  0.00     0.139 C 
HETATM    4  O   UNL     1     117.544 137.772 -38.858  1.00  0.00    -0.650 OA
BRANCH   3   5
HETATM    5  C   UNL     1     118.207 139.711 -37.644  1.00  0.00     0.110 C 
BRANCH   5   6
HETATM    6  C   UNL     1     116.776 139.760 -37.087  1.00  0.00     0.010 C 
BRANCH   6   7
HETATM    7  C   UNL     1     116.143 141.137 -37.319  1.00  0.00     0.001 C 
BRANCH   7   8
HETATM    8  C   UNL     1     114.632 141.097 -37.064  1.00  0.00     0.000 C 
BRANCH   8   9
HETATM    9  C   UNL     1     113.954 140.033 -37.936  1.00  0.00     0.000 C 
BRANCH   9  10
HETATM   10  C   UNL     1     113.396 138.891 -37.079  1.00  0.00     0.000 C 
BRANCH  10  11
HETATM   11  C   UNL     1     113.666 137.530 -37.731  1.00  0.00     0.000 C 
BRANCH  11  12
HETATM   12  C   UNL     1     112.447 137.049 -38.525  1.00  0.00     0.000 C 
BRANCH  12  13
HETATM   13  C   UNL     1     112.877 136.263 -39.770  1.00  0.00    -0.000 C 
BRANCH  13  14
HETATM   14  C   UNL     1     114.133 136.877 -40.400  1.00  0.00    -0.005 C 
HETATM   15  C   UNL     1     113.876 137.300 -41.843  1.00  0.00     0.005 C 
ENDBRANCH  13  14
ENDBRANCH  12  13
ENDBRANCH  11  12
ENDBRANCH  10  11
ENDBRANCH   9  10
ENDBRANCH   8   9
ENDBRANCH   7   8
ENDBRANCH   6   7
ENDBRANCH   5   6
ENDBRANCH   3   5
ENDBRANCH   1   3
TORSDOF 11
ENDMDL
MODEL 16
REMARK VINA RESULT:      -4.0     23.830     26.079
REMARK  11 active torsions:
REMARK  status: ('A' for Active; 'I' for Inactive)
REMARK    1  A    between atoms: O_1  and  C_14 
REMARK    2  A    between atoms: C_3  and  C_4 
REMARK    3  A    between atoms: C_3  and  C_5 
REMARK    4  A    between atoms: C_4  and  C_6 
REMARK    5  A    between atoms: C_5  and  C_7 
REMARK    6  A    between atoms: C_6  and  C_8 
REMARK    7  A    between atoms: C_7  and  C_9 
REMARK    8  A    between atoms: C_8  and  C_10 
REMARK    9  A    between atoms: C_9  and  C_11 
REMARK   10  A    between atoms: C_10  and  C_12 
REMARK   11  A    between atoms: C_12  and  C_14 
ROOT
HETATM    1  O   UNL     1     118.547 162.604 -25.169  1.00  0.00    -0.776 OA
HETATM    2  H   UNL     1     118.314 163.413 -24.693  1.00  0.00     0.167 HD
ENDROOT
BRANCH   1   3
HETATM    3  C   UNL     1     119.071 162.644 -26.413  1.00  0.00     0.139 C 
HETATM    4  O   UNL     1     118.683 161.854 -27.261  1.00  0.00    -0.650 OA
BRANCH   3   5
HETATM    5  C   UNL     1     120.131 163.669 -26.725  1.00  0.00     0.110 C 
BRANCH   5   6
HETATM    6  C   UNL     1     121.339 163.593 -25.780  1.00  0.00     0.010 C 
BRANCH   6   7
HETATM    7  C   UNL     1     122.655 163.696 -26.560  1.00  0.00     0.001 C 
BRANCH   7   8
HETATM    8  C   UNL     1     123.535 164.823 -26.007  1.00  0.00     0.000 C 
BRANCH   8   9
HETATM    9  C   UNL     1     122.939 166.198 -26.331  1.00  0.00     0.000 C 
BRANCH   9  10
HETATM   10  C   UNL     1     122.995 167.125 -25.111  1.00  0.00     0.000 C 
BRANCH  10  11
HETATM   11  C   UNL     1     121.767 166.932 -24.214  1.00  0.00     0.000 C 
BRANCH  11  12
HETATM   12  C   UNL     1     120.602 167.813 -24.679  1.00  0.00     0.000 C 
BRANCH  12  13
HETATM   13  C   UNL     1     119.410 166.958 -25.127  1.00  0.00    -0.000 C 
BRANCH  13  14
HETATM   14  C   UNL     1     119.012 165.957 -24.036  1.00  0.00    -0.005 C 
HETATM   15  C   UNL     1     117.744 166.404 -23.315  1.00  0.00     0.005 C 
ENDBRANCH  13  14
ENDBRANCH  12  13
ENDBRANCH  11  12
ENDBRANCH  10  11
ENDBRANCH   9  10
ENDBRANCH   8   9
ENDBRANCH   7   8
ENDBRANCH   6   7
ENDBRANCH   5   6
ENDBRANCH   3   5
ENDBRANCH   1   3
TORSDOF 11
ENDMDL
MODEL 17
REMARK VINA RESULT:      -4.0     11.338     13.352
REMARK  11 active torsions:
REMARK  status: ('A' for Active; 'I' for Inactive)
REMARK    1  A    between atoms: O_1  and  C_14 
REMARK    2  A    between atoms: C_3  and  C_4 
REMARK    3  A    between atoms: C_3  and  C_5 
REMARK    4  A    between atoms: C_4  and  C_6 
REMARK    5  A    between atoms: C_5  and  C_7 
REMARK    6  A    between atoms: C_6  and  C_8 
REMARK    7  A    between atoms: C_7  and  C_9 
REMARK    8  A    between atoms: C_8  and  C_10 
REMARK    9  A    between atoms: C_9  and  C_11 
REMARK   10  A    between atoms: C_10  and  C_12 
REMARK   11  A    between atoms: C_12  and  C_14 
ROOT
HETATM    1  O   UNL     1     116.837 151.074 -33.007  1.00  0.00    -0.776 OA
HETATM    2  H   UNL     1     117.653 151.519 -33.277  1.00  0.00     0.167 HD
ENDROOT
BRANCH   1   3
HETATM    3  C   UNL     1     116.785 150.307 -31.898  1.00  0.00     0.139 C 
HETATM    4  O   UNL     1     117.627 149.438 -31.720  1.00  0.00    -0.650 OA
BRANCH   3   5
HETATM    5  C   UNL     1     115.681 150.541 -30.900  1.00  0.00     0.110 C 
BRANCH   5   6
HETATM    6  C   UNL     1     115.005 149.243 -30.433  1.00  0.00     0.010 C 
BRANCH   6   7
HETATM    7  C   UNL     1     113.977 148.759 -31.462  1.00  0.00     0.001 C 
BRANCH   7   8
HETATM    8  C   UNL     1     114.362 147.382 -32.017  1.00  0.00     0.000 C 
BRANCH   8   9
HETATM    9  C   UNL     1     114.916 147.498 -33.442  1.00  0.00     0.000 C 
BRANCH   9  10
HETATM   10  C   UNL     1     116.135 146.589 -33.635  1.00  0.00     0.000 C 
BRANCH  10  11
HETATM   11  C   UNL     1     116.379 146.301 -35.121  1.00  0.00     0.000 C 
BRANCH  11  12
HETATM   12  C   UNL     1     115.265 145.422 -35.701  1.00  0.00     0.000 C 
BRANCH  12  13
HETATM   13  C   UNL     1     115.090 144.141 -34.875  1.00  0.00    -0.000 C 
BRANCH  13  14
HETATM   14  C   UNL     1     113.605 143.833 -34.648  1.00  0.00    -0.005 C 
HETATM   15  C   UNL     1     113.231 143.978 -33.176  1.00  0.00     0.005 C 
ENDBRANCH  13  14
ENDBRANCH  12  13
ENDBRANCH  11  12
ENDBRANCH  10  11
ENDBRANCH   9  10
ENDBRANCH   8   9
ENDBRANCH   7   8
ENDBRANCH   6   7
ENDBRANCH   5   6
ENDBRANCH   3   5
ENDBRANCH   1   3
TORSDOF 11
ENDMDL
MODEL 18
REMARK VINA RESULT:      -4.0     14.293     17.958
REMARK  11 active torsions:
REMARK  status: ('A' for Active; 'I' for Inactive)
REMARK    1  A    between atoms: O_1  and  C_14 
REMARK    2  A    between atoms: C_3  and  C_4 
REMARK    3  A    between atoms: C_3  and  C_5 
REMARK    4  A    between atoms: C_4  and  C_6 
REMARK    5  A    between atoms: C_5  and  C_7 
REMARK    6  A    between atoms: C_6  and  C_8 
REMARK    7  A    between atoms: C_7  and  C_9 
REMARK    8  A    between atoms: C_8  and  C_10 
REMARK    9  A    between atoms: C_9  and  C_11 
REMARK   10  A    between atoms: C_10  and  C_12 
REMARK   11  A    between atoms: C_12  and  C_14 
ROOT
HETATM    1  O   UNL     1     121.122 157.162 -26.952  1.00  0.00    -0.776 OA
HETATM    2  H   UNL     1     121.385 157.111 -26.021  1.00  0.00     0.167 HD
ENDROOT
BRANCH   1   3
HETATM    3  C   UNL     1     119.987 157.786 -27.330  1.00  0.00     0.139 C 
HETATM    4  O   UNL     1     119.842 158.978 -27.097  1.00  0.00    -0.650 OA
BRANCH   3   5
HETATM    5  C   UNL     1     118.918 156.993 -28.036  1.00  0.00     0.110 C 
BRANCH   5   6
HETATM    6  C   UNL     1     117.551 157.694 -28.041  1.00  0.00     0.010 C 
BRANCH   6   7
HETATM    7  C   UNL     1     116.411 156.674 -28.148  1.00  0.00     0.001 C 
BRANCH   7   8
HETATM    8  C   UNL     1     116.903 155.365 -28.777  1.00  0.00     0.000 C 
BRANCH   8   9
HETATM    9  C   UNL     1     116.214 154.154 -28.136  1.00  0.00     0.000 C 
BRANCH   9  10
HETATM   10  C   UNL     1     115.582 153.251 -29.202  1.00  0.00     0.000 C 
BRANCH  10  11
HETATM   11  C   UNL     1     116.108 153.597 -30.600  1.00  0.00     0.000 C 
BRANCH  11  12
HETATM   12  C   UNL     1     116.950 152.451 -31.171  1.00  0.00     0.000 C 
BRANCH  12  13
HETATM   13  C   UNL     1     116.229 151.107 -31.011  1.00  0.00    -0.000 C 
BRANCH  13  14
HETATM   14  C   UNL     1     116.159 150.358 -32.346  1.00  0.00    -0.005 C 
HETATM   15  C   UNL     1     117.314 150.755 -33.262  1.00  0.00     0.005 C 
ENDBRANCH  13  14
ENDBRANCH  12  13
ENDBRANCH  11  12
ENDBRANCH  10  11
ENDBRANCH   9  10
ENDBRANCH   8   9
ENDBRANCH   7   8
ENDBRANCH   6   7
ENDBRANCH   5   6
ENDBRANCH   3   5
ENDBRANCH   1   3
TORSDOF 11
ENDMDL
MODEL 19
REMARK VINA RESULT:      -4.0     14.986     17.149
REMARK  11 active torsions:
REMARK  status: ('A' for Active; 'I' for Inactive)
REMARK    1  A    between atoms: O_1  and  C_14 
REMARK    2  A    between atoms: C_3  and  C_4 
REMARK    3  A    between atoms: C_3  and  C_5 
REMARK    4  A    between atoms: C_4  and  C_6 
REMARK    5  A    between atoms: C_5  and  C_7 
REMARK    6  A    between atoms: C_6  and  C_8 
REMARK    7  A    between atoms: C_7  and  C_9 
REMARK    8  A    between atoms: C_8  and  C_10 
REMARK    9  A    between atoms: C_9  and  C_11 
REMARK   10  A    between atoms: C_10  and  C_12 
REMARK   11  A    between atoms: C_12  and  C_14 
ROOT
HETATM    1  O   UNL     1     118.034 155.572 -31.004  1.00  0.00    -0.776 OA
HETATM    2  H   UNL     1     117.359 156.151 -31.385  1.00  0.00     0.167 HD
ENDROOT
BRANCH   1   3
HETATM    3  C   UNL     1     118.299 154.357 -31.531  1.00  0.00     0.139 C 
HETATM    4  O   UNL     1     119.446 153.933 -31.531  1.00  0.00    -0.650 OA
BRANCH   3   5
HETATM    5  C   UNL     1     117.167 153.550 -32.110  1.00  0.00     0.110 C 
BRANCH   5   6
HETATM    6  C   UNL     1     116.482 152.644 -31.075  1.00  0.00     0.010 C 
BRANCH   6   7
HETATM    7  C   UNL     1     115.346 153.386 -30.362  1.00  0.00     0.001 C 
BRANCH   7   8
HETATM    8  C   UNL     1     115.340 153.070 -28.862  1.00  0.00     0.000 C 
BRANCH   8   9
HETATM    9  C   UNL     1     116.266 154.020 -28.094  1.00  0.00     0.000 C 
BRANCH   9  10
HETATM   10  C   UNL     1     115.826 155.478 -28.266  1.00  0.00     0.000 C 
BRANCH  10  11
HETATM   11  C   UNL     1     116.090 156.288 -26.991  1.00  0.00     0.000 C 
BRANCH  11  12
HETATM   12  C   UNL     1     116.503 157.725 -27.329  1.00  0.00     0.000 C 
BRANCH  12  13
HETATM   13  C   UNL     1     117.985 157.960 -27.013  1.00  0.00    -0.000 C 
BRANCH  13  14
HETATM   14  C   UNL     1     118.819 158.010 -28.298  1.00  0.00    -0.005 C 
HETATM   15  C   UNL     1     118.053 158.695 -29.426  1.00  0.00     0.005 C 
ENDBRANCH  13  14
ENDBRANCH  12  13
ENDBRANCH  11  12
ENDBRANCH  10  11
ENDBRANCH   9  10
ENDBRANCH   8   9
ENDBRANCH   7   8
ENDBRANCH   6   7
ENDBRANCH   5   6
ENDBRANCH   3   5
ENDBRANCH   1   3
TORSDOF 11
ENDMDL
MODEL 20
REMARK VINA RESULT:      -3.9     10.207     11.198
REMARK  11 active torsions:
REMARK  status: ('A' for Active; 'I' for Inactive)
REMARK    1  A    between atoms: O_1  and  C_14 
REMARK    2  A    between atoms: C_3  and  C_4 
REMARK    3  A    between atoms: C_3  and  C_5 
REMARK    4  A    between atoms: C_4  and  C_6 
REMARK    5  A    between atoms: C_5  and  C_7 
REMARK    6  A    between atoms: C_6  and  C_8 
REMARK    7  A    between atoms: C_7  and  C_9 
REMARK    8  A    between atoms: C_8  and  C_10 
REMARK    9  A    between atoms: C_9  and  C_11 
REMARK   10  A    between atoms: C_10  and  C_12 
REMARK   11  A    between atoms: C_12  and  C_14 
ROOT
HETATM    1  O   UNL     1     114.239 137.678 -40.293  1.00  0.00    -0.776 OA
HETATM    2  H   UNL     1     115.096 138.053 -40.043  1.00  0.00     0.167 HD
ENDROOT
BRANCH   1   3
HETATM    3  C   UNL     1     113.495 136.973 -39.414  1.00  0.00     0.139 C 
HETATM    4  O   UNL     1     112.542 136.319 -39.813  1.00  0.00    -0.650 OA
BRANCH   3   5
HETATM    5  C   UNL     1     113.859 137.013 -37.953  1.00  0.00     0.110 C 
BRANCH   5   6
HETATM    6  C   UNL     1     112.678 137.396 -37.047  1.00  0.00     0.010 C 
BRANCH   6   7
HETATM    7  C   UNL     1     112.408 138.904 -37.107  1.00  0.00     0.001 C 
BRANCH   7   8
HETATM    8  C   UNL     1     112.448 139.525 -35.705  1.00  0.00     0.000 C 
BRANCH   8   9
HETATM    9  C   UNL     1     113.630 140.493 -35.565  1.00  0.00     0.000 C 
BRANCH   9  10
HETATM   10  C   UNL     1     113.146 141.945 -35.479  1.00  0.00     0.000 C 
BRANCH  10  11
HETATM   11  C   UNL     1     114.281 142.879 -35.043  1.00  0.00     0.000 C 
BRANCH  11  12
HETATM   12  C   UNL     1     115.579 142.554 -35.790  1.00  0.00     0.000 C 
BRANCH  12  13
HETATM   13  C   UNL     1     115.606 143.231 -37.166  1.00  0.00    -0.000 C 
BRANCH  13  14
HETATM   14  C   UNL     1     116.383 144.551 -37.113  1.00  0.00    -0.005 C 
HETATM   15  C   UNL     1     115.436 145.747 -37.080  1.00  0.00     0.005 C 
ENDBRANCH  13  14
ENDBRANCH  12  13
ENDBRANCH  11  12
ENDBRANCH  10  11
ENDBRANCH   9  10
ENDBRANCH   8   9
ENDBRANCH   7   8
ENDBRANCH   6   7
ENDBRANCH   5   6
ENDBRANCH   3   5
ENDBRANCH   1   3
TORSDOF 11
ENDMDL
