REMARK  15 active torsions:
REMARK  status: ('A' for Active; 'I' for Inactive)
REMARK    1  A    between atoms: O_1  and  C_18 
REMARK    2  A    between atoms: C_3  and  C_4 
REMARK    3  A    between atoms: C_3  and  C_5 
REMARK    4  A    between atoms: C_4  and  C_6 
REMARK    5  A    between atoms: C_5  and  C_7 
REMARK    6  A    between atoms: C_6  and  C_8 
REMARK    7  A    between atoms: C_7  and  C_9 
REMARK    8  A    between atoms: C_8  and  C_12 
REMARK    9  A    between atoms: C_9  and  C_18 
REMARK   10  A    between atoms: C_10  and  C_11 
REMARK   11  A    between atoms: C_10  and  C_13 
REMARK   12  A    between atoms: C_11  and  C_14 
REMARK   13  A    between atoms: C_13  and  C_17 
REMARK   14  A    between atoms: C_15  and  C_16 
REMARK   15  A    between atoms: C_16  and  C_19 
ROOT
HETATM    1  O   UNL     1      -6.890  -0.304   0.091  1.00  0.00    -0.776 OA
HETATM    2  H   UNL     1      -7.583  -0.854  -0.301  1.00  0.00     0.167 HD
ENDROOT
BRANCH   1   3
HETATM    3  C   UNL     1      -5.629  -0.312  -0.390  1.00  0.00     0.139 C 
HETATM    4  O   UNL     1      -5.346  -1.027  -1.341  1.00  0.00    -0.650 OA
BRANCH   3   5
HETATM    5  C   UNL     1      -4.592   0.565   0.263  1.00  0.00     0.110 C 
BRANCH   5   6
HETATM    6  C   UNL     1      -3.208   0.449  -0.390  1.00  0.00     0.010 C 
BRANCH   6   7
HETATM    7  C   UNL     1      -2.188   1.353   0.312  1.00  0.00     0.001 C 
BRANCH   7   8
HETATM    8  C   UNL     1      -0.803   1.224  -0.333  1.00  0.00     0.000 C 
BRANCH   8   9
HETATM    9  C   UNL     1       0.212   2.145   0.351  1.00  0.00     0.000 C 
BRANCH   9  10
HETATM   10  C   UNL     1       1.597   2.016  -0.295  1.00  0.00     0.004 C 
BRANCH  10  11
HETATM   11  C   UNL     1       2.582   3.012   0.330  1.00  0.00     0.027 C 
BRANCH  11  12
HETATM   12  C   UNL     1       3.927   2.968  -0.346  1.00  0.00    -0.030 C 
HETATM   13  C   UNL     1       4.835   1.981  -0.238  1.00  0.00    -0.027 C 
BRANCH  13  14
HETATM   14  C   UNL     1       4.714   0.742   0.615  1.00  0.00     0.053 C 
BRANCH  14  15
HETATM   15  C   UNL     1       4.917  -0.488  -0.237  1.00  0.00    -0.027 C 
HETATM   16  C   UNL     1       4.140  -1.588  -0.283  1.00  0.00    -0.030 C 
BRANCH  16  17
HETATM   17  C   UNL     1       2.892  -1.862   0.521  1.00  0.00     0.027 C 
BRANCH  17  18
HETATM   18  C   UNL     1       1.714  -2.188  -0.403  1.00  0.00     0.004 C 
BRANCH  18  19
HETATM   19  C   UNL     1       0.478  -2.588   0.412  1.00  0.00    -0.000 C 
BRANCH  19  20
HETATM   20  C   UNL     1      -0.700  -2.943  -0.503  1.00  0.00    -0.005 C 
HETATM   21  C   UNL     1      -1.921  -3.360   0.312  1.00  0.00     0.005 C 
ENDBRANCH  19  20
ENDBRANCH  18  19
ENDBRANCH  17  18
ENDBRANCH  16  17
ENDBRANCH  14  15
ENDBRANCH  13  14
ENDBRANCH  11  12
ENDBRANCH  10  11
ENDBRANCH   9  10
ENDBRANCH   8   9
ENDBRANCH   7   8
ENDBRANCH   6   7
ENDBRANCH   5   6
ENDBRANCH   3   5
ENDBRANCH   1   3
TORSDOF 15
