REMARK  14 active torsions:
REMARK  status: ('A' for Active; 'I' for Inactive)
REMARK    1  A    between atoms: O_1  and  C_18 
REMARK    2  A    between atoms: C_3  and  C_4 
REMARK    3  A    between atoms: C_3  and  C_5 
REMARK    4  A    between atoms: C_4  and  C_6 
REMARK    5  A    between atoms: C_5  and  C_7 
REMARK    6  A    between atoms: C_6  and  C_8 
REMARK    7  A    between atoms: C_7  and  C_13 
REMARK    8  A    between atoms: C_8  and  C_15 
REMARK    9  A    between atoms: C_9  and  C_10 
REMARK   10  A    between atoms: C_9  and  C_11 
REMARK   11  A    between atoms: C_10  and  C_12 
REMARK   12  A    between atoms: C_11  and  C_14 
REMARK   13  A    between atoms: C_12  and  C_16 
REMARK   14  A    between atoms: C_15  and  C_18 
ROOT
HETATM    1  O   UNL     1      -7.161   1.937   0.483  1.00  0.00    -0.776 OA
HETATM    2  H   UNL     1      -7.714   2.658   0.149  1.00  0.00     0.167 HD
ENDROOT
BRANCH   1   3
HETATM    3  C   UNL     1      -5.936   1.695  -0.029  1.00  0.00     0.139 C 
HETATM    4  O   UNL     1      -5.506   2.397  -0.935  1.00  0.00    -0.650 OA
BRANCH   3   5
HETATM    5  C   UNL     1      -5.121   0.559   0.532  1.00  0.00     0.110 C 
BRANCH   5   6
HETATM    6  C   UNL     1      -3.752   0.405  -0.148  1.00  0.00     0.010 C 
BRANCH   6   7
HETATM    7  C   UNL     1      -2.965  -0.763   0.458  1.00  0.00     0.001 C 
BRANCH   7   8
HETATM    8  C   UNL     1      -1.599  -0.917  -0.220  1.00  0.00     0.000 C 
BRANCH   8   9
HETATM    9  C   UNL     1      -0.811  -2.084   0.387  1.00  0.00     0.000 C 
BRANCH   9  10
HETATM   10  C   UNL     1       0.556  -2.237  -0.290  1.00  0.00     0.004 C 
BRANCH  10  11
HETATM   11  C   UNL     1       1.336  -3.418   0.311  1.00  0.00     0.027 C 
BRANCH  11  12
HETATM   12  C   UNL     1       2.673  -3.618  -0.360  1.00  0.00    -0.031 C 
HETATM   13  C   UNL     1       3.734  -2.794  -0.260  1.00  0.00    -0.031 C 
BRANCH  13  14
HETATM   14  C   UNL     1       3.796  -1.538   0.574  1.00  0.00     0.027 C 
BRANCH  14  15
HETATM   15  C   UNL     1       4.050  -0.320  -0.319  1.00  0.00     0.004 C 
BRANCH  15  16
HETATM   16  C   UNL     1       4.142   0.964   0.514  1.00  0.00     0.000 C 
BRANCH  16  17
HETATM   17  C   UNL     1       4.392   2.184  -0.381  1.00  0.00    -0.000 C 
BRANCH  17  18
HETATM   18  C   UNL     1       4.483   3.467   0.453  1.00  0.00    -0.005 C 
HETATM   19  C   UNL     1       4.732   4.683  -0.434  1.00  0.00     0.005 C 
ENDBRANCH  17  18
ENDBRANCH  16  17
ENDBRANCH  15  16
ENDBRANCH  14  15
ENDBRANCH  13  14
ENDBRANCH  11  12
ENDBRANCH  10  11
ENDBRANCH   9  10
ENDBRANCH   8   9
ENDBRANCH   7   8
ENDBRANCH   6   7
ENDBRANCH   5   6
ENDBRANCH   3   5
ENDBRANCH   1   3
TORSDOF 14
