REMARK  15 active torsions:
REMARK  status: ('A' for Active; 'I' for Inactive)
REMARK    1  A    between atoms: O_1  and  C_18 
REMARK    2  A    between atoms: C_3  and  C_4 
REMARK    3  A    between atoms: C_3  and  C_5 
REMARK    4  A    between atoms: C_4  and  C_6 
REMARK    5  A    between atoms: C_5  and  C_7 
REMARK    6  A    between atoms: C_6  and  C_8 
REMARK    7  A    between atoms: C_7  and  C_9 
REMARK    8  A    between atoms: C_8  and  C_10 
REMARK    9  A    between atoms: C_9  and  C_11 
REMARK   10  A    between atoms: C_10  and  C_12 
REMARK   11  A    between atoms: C_11  and  C_13 
REMARK   12  A    between atoms: C_12  and  C_14 
REMARK   13  A    between atoms: C_13  and  C_15 
REMARK   14  A    between atoms: C_14  and  C_16 
REMARK   15  A    between atoms: C_16  and  C_18 
ROOT
HETATM    1  O   UNL     1      -9.534   0.518   0.016  1.00  0.00    -0.776 OA
HETATM    2  H   UNL     1     -10.381   0.051   0.000  1.00  0.00     0.167 HD
ENDROOT
BRANCH   1   3
HETATM    3  C   UNL     1      -8.361  -0.150  -0.006  1.00  0.00     0.139 C 
HETATM    4  O   UNL     1      -8.359  -1.372  -0.048  1.00  0.00    -0.650 OA
BRANCH   3   5
HETATM    5  C   UNL     1      -7.074   0.633   0.021  1.00  0.00     0.110 C 
BRANCH   5   6
HETATM    6  C   UNL     1      -5.824  -0.260  -0.009  1.00  0.00     0.010 C 
BRANCH   6   7
HETATM    7  C   UNL     1      -4.545   0.584   0.021  1.00  0.00     0.001 C 
BRANCH   7   8
HETATM    8  C   UNL     1      -3.297  -0.307  -0.010  1.00  0.00     0.000 C 
BRANCH   8   9
HETATM    9  C   UNL     1      -2.017   0.537   0.019  1.00  0.00     0.000 C 
BRANCH   9  10
HETATM   10  C   UNL     1      -0.770  -0.354  -0.011  1.00  0.00     0.000 C 
BRANCH  10  11
HETATM   11  C   UNL     1       0.510   0.490   0.017  1.00  0.00     0.000 C 
BRANCH  11  12
HETATM   12  C   UNL     1       1.758  -0.400  -0.014  1.00  0.00     0.000 C 
BRANCH  12  13
HETATM   13  C   UNL     1       3.037   0.444   0.015  1.00  0.00     0.000 C 
BRANCH  13  14
HETATM   14  C   UNL     1       4.285  -0.447  -0.017  1.00  0.00     0.000 C 
BRANCH  14  15
HETATM   15  C   UNL     1       5.565   0.397   0.011  1.00  0.00     0.000 C 
BRANCH  15  16
HETATM   16  C   UNL     1       6.812  -0.494  -0.020  1.00  0.00     0.000 C 
BRANCH  16  17
HETATM   17  C   UNL     1       8.092   0.350   0.007  1.00  0.00    -0.000 C 
BRANCH  17  18
HETATM   18  C   UNL     1       9.339  -0.541  -0.025  1.00  0.00    -0.005 C 
HETATM   19  C   UNL     1      10.615   0.296   0.003  1.00  0.00     0.005 C 
ENDBRANCH  17  18
ENDBRANCH  16  17
ENDBRANCH  15  16
ENDBRANCH  14  15
ENDBRANCH  13  14
ENDBRANCH  12  13
ENDBRANCH  11  12
ENDBRANCH  10  11
ENDBRANCH   9  10
ENDBRANCH   8   9
ENDBRANCH   7   8
ENDBRANCH   6   7
ENDBRANCH   5   6
ENDBRANCH   3   5
ENDBRANCH   1   3
TORSDOF 15
