MODEL 1
REMARK VINA RESULT:      -5.8      0.000      0.000
REMARK  15 active torsions:
REMARK  status: ('A' for Active; 'I' for Inactive)
REMARK    1  A    between atoms: O_1  and  C_23 
REMARK    2  A    between atoms: C_3  and  C_7 
REMARK    3  A    between atoms: C_3  and  C_8 
REMARK    4  A    between atoms: C_4  and  C_10 
REMARK    5  A    between atoms: C_4  and  C_11 
REMARK    6  A    between atoms: C_5  and  C_12 
REMARK    7  A    between atoms: C_5  and  C_13 
REMARK    8  A    between atoms: C_6  and  C_15 
REMARK    9  A    between atoms: C_6  and  C_16 
REMARK   10  A    between atoms: C_7  and  C_23 
REMARK   11  A    between atoms: C_9  and  C_17 
REMARK   12  A    between atoms: C_9  and  C_18 
REMARK   13  A    between atoms: C_14  and  C_19 
REMARK   14  A    between atoms: C_14  and  C_20 
REMARK   15  A    between atoms: C_21  and  C_22 
ROOT
HETATM    1  O   UNL     1     119.620 151.937 -30.354  1.00  0.00    -0.776 OA
HETATM    2  H   UNL     1     119.502 152.896 -30.404  1.00  0.00     0.167 HD
ENDROOT
BRANCH   1   3
HETATM    3  C   UNL     1     119.167 151.120 -31.329  1.00  0.00     0.139 C 
HETATM    4  O   UNL     1     118.878 149.960 -31.072  1.00  0.00    -0.650 OA
BRANCH   3   5
HETATM    5  C   UNL     1     119.016 151.642 -32.730  1.00  0.00     0.113 C 
BRANCH   5   6
HETATM    6  C   UNL     1     117.568 152.067 -33.002  1.00  0.00     0.037 C 
BRANCH   6   7
HETATM    7  C   UNL     1     117.461 153.571 -33.084  1.00  0.00    -0.030 C 
HETATM    8  C   UNL     1     117.074 154.412 -32.102  1.00  0.00    -0.027 C 
BRANCH   8   9
HETATM    9  C   UNL     1     116.659 154.052 -30.691  1.00  0.00     0.053 C 
BRANCH   9  10
HETATM   10  C   UNL     1     117.643 154.595 -29.687  1.00  0.00    -0.027 C 
HETATM   11  C   UNL     1     117.334 155.317 -28.594  1.00  0.00    -0.027 C 
BRANCH  11  12
HETATM   12  C   UNL     1     115.939 155.666 -28.144  1.00  0.00     0.053 C 
BRANCH  12  13
HETATM   13  C   UNL     1     115.941 156.156 -26.717  1.00  0.00    -0.027 C 
HETATM   14  C   UNL     1     116.331 157.370 -26.285  1.00  0.00    -0.027 C 
BRANCH  14  15
HETATM   15  C   UNL     1     116.893 158.476 -27.138  1.00  0.00     0.053 C 
BRANCH  15  16
HETATM   16  C   UNL     1     117.279 159.629 -26.237  1.00  0.00    -0.027 C 
HETATM   17  C   UNL     1     118.300 160.496 -26.392  1.00  0.00    -0.027 C 
BRANCH  17  18
HETATM   18  C   UNL     1     119.297 160.534 -27.519  1.00  0.00     0.053 C 
BRANCH  18  19
HETATM   19  C   UNL     1     120.589 159.864 -27.112  1.00  0.00    -0.027 C 
HETATM   20  C   UNL     1     120.931 158.570 -27.279  1.00  0.00    -0.027 C 
BRANCH  20  21
HETATM   21  C   UNL     1     120.123 157.497 -27.965  1.00  0.00     0.053 C 
BRANCH  21  22
HETATM   22  C   UNL     1     120.473 157.415 -29.433  1.00  0.00    -0.027 C 
HETATM   23  C   UNL     1     119.679 157.719 -30.478  1.00  0.00    -0.031 C 
BRANCH  23  24
HETATM   24  C   UNL     1     118.251 158.192 -30.413  1.00  0.00     0.022 C 
HETATM   25  C   UNL     1     117.860 159.035 -31.620  1.00  0.00     0.009 C 
ENDBRANCH  23  24
ENDBRANCH  21  22
ENDBRANCH  20  21
ENDBRANCH  18  19
ENDBRANCH  17  18
ENDBRANCH  15  16
ENDBRANCH  14  15
ENDBRANCH  12  13
ENDBRANCH  11  12
ENDBRANCH   9  10
ENDBRANCH   8   9
ENDBRANCH   6   7
ENDBRANCH   5   6
ENDBRANCH   3   5
ENDBRANCH   1   3
TORSDOF 15
ENDMDL
MODEL 2
REMARK VINA RESULT:      -5.5      3.582      8.096
REMARK  15 active torsions:
REMARK  status: ('A' for Active; 'I' for Inactive)
REMARK    1  A    between atoms: O_1  and  C_23 
REMARK    2  A    between atoms: C_3  and  C_7 
REMARK    3  A    between atoms: C_3  and  C_8 
REMARK    4  A    between atoms: C_4  and  C_10 
REMARK    5  A    between atoms: C_4  and  C_11 
REMARK    6  A    between atoms: C_5  and  C_12 
REMARK    7  A    between atoms: C_5  and  C_13 
REMARK    8  A    between atoms: C_6  and  C_15 
REMARK    9  A    between atoms: C_6  and  C_16 
REMARK   10  A    between atoms: C_7  and  C_23 
REMARK   11  A    between atoms: C_9  and  C_17 
REMARK   12  A    between atoms: C_9  and  C_18 
REMARK   13  A    between atoms: C_14  and  C_19 
REMARK   14  A    between atoms: C_14  and  C_20 
REMARK   15  A    between atoms: C_21  and  C_22 
ROOT
HETATM    1  O   UNL     1     122.607 151.483 -32.663  1.00  0.00    -0.776 OA
HETATM    2  H   UNL     1     123.340 151.194 -32.102  1.00  0.00     0.167 HD
ENDROOT
BRANCH   1   3
HETATM    3  C   UNL     1     121.322 151.332 -32.275  1.00  0.00     0.139 C 
HETATM    4  O   UNL     1     120.743 150.273 -32.472  1.00  0.00    -0.650 OA
BRANCH   3   5
HETATM    5  C   UNL     1     120.609 152.467 -31.598  1.00  0.00     0.113 C 
BRANCH   5   6
HETATM    6  C   UNL     1     119.089 152.315 -31.729  1.00  0.00     0.037 C 
BRANCH   6   7
HETATM    7  C   UNL     1     118.594 152.975 -32.993  1.00  0.00    -0.030 C 
HETATM    8  C   UNL     1     117.645 153.930 -33.093  1.00  0.00    -0.027 C 
BRANCH   8   9
HETATM    9  C   UNL     1     116.855 154.564 -31.969  1.00  0.00     0.053 C 
BRANCH   9  10
HETATM   10  C   UNL     1     117.761 154.955 -30.829  1.00  0.00    -0.027 C 
HETATM   11  C   UNL     1     117.385 155.122 -29.548  1.00  0.00    -0.027 C 
BRANCH  11  12
HETATM   12  C   UNL     1     115.997 154.893 -29.007  1.00  0.00     0.053 C 
BRANCH  12  13
HETATM   13  C   UNL     1     115.923 153.589 -28.252  1.00  0.00    -0.027 C 
HETATM   14  C   UNL     1     115.393 152.433 -28.696  1.00  0.00    -0.027 C 
BRANCH  14  15
HETATM   15  C   UNL     1     114.720 152.219 -30.025  1.00  0.00     0.053 C 
BRANCH  15  16
HETATM   16  C   UNL     1     115.650 151.420 -30.911  1.00  0.00    -0.027 C 
HETATM   17  C   UNL     1     115.656 150.087 -31.118  1.00  0.00    -0.027 C 
BRANCH  17  18
HETATM   18  C   UNL     1     114.718 149.070 -30.523  1.00  0.00     0.053 C 
BRANCH  18  19
HETATM   19  C   UNL     1     113.870 148.434 -31.599  1.00  0.00    -0.027 C 
HETATM   20  C   UNL     1     114.283 147.636 -32.606  1.00  0.00    -0.027 C 
BRANCH  20  21
HETATM   21  C   UNL     1     115.686 147.146 -32.860  1.00  0.00     0.053 C 
BRANCH  21  22
HETATM   22  C   UNL     1     115.894 146.846 -34.327  1.00  0.00    -0.027 C 
HETATM   23  C   UNL     1     116.470 147.642 -35.248  1.00  0.00    -0.031 C 
BRANCH  23  24
HETATM   24  C   UNL     1     117.021 149.026 -35.020  1.00  0.00     0.022 C 
HETATM   25  C   UNL     1     118.497 149.011 -34.643  1.00  0.00     0.009 C 
ENDBRANCH  23  24
ENDBRANCH  21  22
ENDBRANCH  20  21
ENDBRANCH  18  19
ENDBRANCH  17  18
ENDBRANCH  15  16
ENDBRANCH  14  15
ENDBRANCH  12  13
ENDBRANCH  11  12
ENDBRANCH   9  10
ENDBRANCH   8   9
ENDBRANCH   6   7
ENDBRANCH   5   6
ENDBRANCH   3   5
ENDBRANCH   1   3
TORSDOF 15
ENDMDL
MODEL 3
REMARK VINA RESULT:      -5.4      4.621      8.804
REMARK  15 active torsions:
REMARK  status: ('A' for Active; 'I' for Inactive)
REMARK    1  A    between atoms: O_1  and  C_23 
REMARK    2  A    between atoms: C_3  and  C_7 
REMARK    3  A    between atoms: C_3  and  C_8 
REMARK    4  A    between atoms: C_4  and  C_10 
REMARK    5  A    between atoms: C_4  and  C_11 
REMARK    6  A    between atoms: C_5  and  C_12 
REMARK    7  A    between atoms: C_5  and  C_13 
REMARK    8  A    between atoms: C_6  and  C_15 
REMARK    9  A    between atoms: C_6  and  C_16 
REMARK   10  A    between atoms: C_7  and  C_23 
REMARK   11  A    between atoms: C_9  and  C_17 
REMARK   12  A    between atoms: C_9  and  C_18 
REMARK   13  A    between atoms: C_14  and  C_19 
REMARK   14  A    between atoms: C_14  and  C_20 
REMARK   15  A    between atoms: C_21  and  C_22 
ROOT
HETATM    1  O   UNL     1     120.721 149.612 -33.090  1.00  0.00    -0.776 OA
HETATM    2  H   UNL     1     121.355 149.510 -33.813  1.00  0.00     0.167 HD
ENDROOT
BRANCH   1   3
HETATM    3  C   UNL     1     119.832 148.640 -32.791  1.00  0.00     0.139 C 
HETATM    4  O   UNL     1     119.454 148.489 -31.638  1.00  0.00    -0.650 OA
BRANCH   3   5
HETATM    5  C   UNL     1     119.306 147.750 -33.881  1.00  0.00     0.113 C 
BRANCH   5   6
HETATM    6  C   UNL     1     118.025 147.036 -33.434  1.00  0.00     0.037 C 
BRANCH   6   7
HETATM    7  C   UNL     1     118.173 145.540 -33.576  1.00  0.00    -0.030 C 
HETATM    8  C   UNL     1     117.376 144.709 -34.282  1.00  0.00    -0.027 C 
BRANCH   8   9
HETATM    9  C   UNL     1     116.152 145.074 -35.094  1.00  0.00     0.053 C 
BRANCH   9  10
HETATM   10  C   UNL     1     114.937 144.333 -34.597  1.00  0.00    -0.027 C 
HETATM   11  C   UNL     1     113.906 144.877 -33.926  1.00  0.00    -0.027 C 
BRANCH  11  12
HETATM   12  C   UNL     1     113.749 146.339 -33.599  1.00  0.00     0.053 C 
BRANCH  12  13
HETATM   13  C   UNL     1     114.399 146.668 -32.278  1.00  0.00    -0.027 C 
HETATM   14  C   UNL     1     114.632 147.897 -31.781  1.00  0.00    -0.027 C 
BRANCH  14  15
HETATM   15  C   UNL     1     114.335 149.203 -32.470  1.00  0.00     0.053 C 
BRANCH  15  16
HETATM   16  C   UNL     1     115.416 149.463 -33.495  1.00  0.00    -0.027 C 
HETATM   17  C   UNL     1     116.523 150.221 -33.358  1.00  0.00    -0.027 C 
BRANCH  17  18
HETATM   18  C   UNL     1     116.958 150.981 -32.133  1.00  0.00     0.053 C 
BRANCH  18  19
HETATM   19  C   UNL     1     117.796 152.178 -32.518  1.00  0.00    -0.027 C 
HETATM   20  C   UNL     1     118.372 153.077 -31.694  1.00  0.00    -0.027 C 
BRANCH  20  21
HETATM   21  C   UNL     1     118.362 153.065 -30.185  1.00  0.00     0.053 C 
BRANCH  21  22
HETATM   22  C   UNL     1     117.578 154.238 -29.644  1.00  0.00    -0.027 C 
HETATM   23  C   UNL     1     116.241 154.331 -29.505  1.00  0.00    -0.031 C 
BRANCH  23  24
HETATM   24  C   UNL     1     115.225 153.284 -29.881  1.00  0.00     0.022 C 
HETATM   25  C   UNL     1     114.988 152.274 -28.766  1.00  0.00     0.009 C 
ENDBRANCH  23  24
ENDBRANCH  21  22
ENDBRANCH  20  21
ENDBRANCH  18  19
ENDBRANCH  17  18
ENDBRANCH  15  16
ENDBRANCH  14  15
ENDBRANCH  12  13
ENDBRANCH  11  12
ENDBRANCH   9  10
ENDBRANCH   8   9
ENDBRANCH   6   7
ENDBRANCH   5   6
ENDBRANCH   3   5
ENDBRANCH   1   3
TORSDOF 15
ENDMDL
MODEL 4
REMARK VINA RESULT:      -5.4      7.594     13.625
REMARK  15 active torsions:
REMARK  status: ('A' for Active; 'I' for Inactive)
REMARK    1  A    between atoms: O_1  and  C_23 
REMARK    2  A    between atoms: C_3  and  C_7 
REMARK    3  A    between atoms: C_3  and  C_8 
REMARK    4  A    between atoms: C_4  and  C_10 
REMARK    5  A    between atoms: C_4  and  C_11 
REMARK    6  A    between atoms: C_5  and  C_12 
REMARK    7  A    between atoms: C_5  and  C_13 
REMARK    8  A    between atoms: C_6  and  C_15 
REMARK    9  A    between atoms: C_6  and  C_16 
REMARK   10  A    between atoms: C_7  and  C_23 
REMARK   11  A    between atoms: C_9  and  C_17 
REMARK   12  A    between atoms: C_9  and  C_18 
REMARK   13  A    between atoms: C_14  and  C_19 
REMARK   14  A    between atoms: C_14  and  C_20 
REMARK   15  A    between atoms: C_21  and  C_22 
ROOT
HETATM    1  O   UNL     1     112.409 149.324 -32.545  1.00  0.00    -0.776 OA
HETATM    2  H   UNL     1     111.596 148.893 -32.248  1.00  0.00     0.167 HD
ENDROOT
BRANCH   1   3
HETATM    3  C   UNL     1     113.609 149.002 -32.017  1.00  0.00     0.139 C 
HETATM    4  O   UNL     1     114.031 147.858 -32.107  1.00  0.00    -0.650 OA
BRANCH   3   5
HETATM    5  C   UNL     1     114.426 150.056 -31.324  1.00  0.00     0.113 C 
BRANCH   5   6
HETATM    6  C   UNL     1     115.919 149.711 -31.372  1.00  0.00     0.037 C 
BRANCH   6   7
HETATM    7  C   UNL     1     116.755 150.968 -31.393  1.00  0.00    -0.030 C 
HETATM    8  C   UNL     1     118.099 151.047 -31.493  1.00  0.00    -0.027 C 
BRANCH   8   9
HETATM    9  C   UNL     1     119.084 149.904 -31.605  1.00  0.00     0.053 C 
BRANCH   9  10
HETATM   10  C   UNL     1     119.970 150.076 -32.813  1.00  0.00    -0.027 C 
HETATM   11  C   UNL     1     119.893 149.363 -33.952  1.00  0.00    -0.027 C 
BRANCH  11  12
HETATM   12  C   UNL     1     118.867 148.301 -34.250  1.00  0.00     0.053 C 
BRANCH  12  13
HETATM   13  C   UNL     1     117.541 148.921 -34.615  1.00  0.00    -0.027 C 
HETATM   14  C   UNL     1     116.373 148.275 -34.789  1.00  0.00    -0.027 C 
BRANCH  14  15
HETATM   15  C   UNL     1     116.162 146.786 -34.703  1.00  0.00     0.053 C 
BRANCH  15  16
HETATM   16  C   UNL     1     115.987 146.244 -36.104  1.00  0.00    -0.027 C 
HETATM   17  C   UNL     1     115.732 144.973 -36.475  1.00  0.00    -0.027 C 
BRANCH  17  18
HETATM   18  C   UNL     1     115.540 143.784 -35.572  1.00  0.00     0.053 C 
BRANCH  18  19
HETATM   19  C   UNL     1     114.152 143.787 -34.974  1.00  0.00    -0.027 C 
HETATM   20  C   UNL     1     113.333 142.731 -34.795  1.00  0.00    -0.027 C 
BRANCH  20  21
HETATM   21  C   UNL     1     113.632 141.285 -35.100  1.00  0.00     0.053 C 
BRANCH  21  22
HETATM   22  C   UNL     1     112.895 140.833 -36.339  1.00  0.00    -0.027 C 
HETATM   23  C   UNL     1     113.352 140.835 -37.606  1.00  0.00    -0.031 C 
BRANCH  23  24
HETATM   24  C   UNL     1     114.703 141.312 -38.072  1.00  0.00     0.022 C 
HETATM   25  C   UNL     1     114.849 141.260 -39.587  1.00  0.00     0.009 C 
ENDBRANCH  23  24
ENDBRANCH  21  22
ENDBRANCH  20  21
ENDBRANCH  18  19
ENDBRANCH  17  18
ENDBRANCH  15  16
ENDBRANCH  14  15
ENDBRANCH  12  13
ENDBRANCH  11  12
ENDBRANCH   9  10
ENDBRANCH   8   9
ENDBRANCH   6   7
ENDBRANCH   5   6
ENDBRANCH   3   5
ENDBRANCH   1   3
TORSDOF 15
ENDMDL
MODEL 5
REMARK VINA RESULT:      -5.3     10.445     14.281
REMARK  15 active torsions:
REMARK  status: ('A' for Active; 'I' for Inactive)
REMARK    1  A    between atoms: O_1  and  C_23 
REMARK    2  A    between atoms: C_3  and  C_7 
REMARK    3  A    between atoms: C_3  and  C_8 
REMARK    4  A    between atoms: C_4  and  C_10 
REMARK    5  A    between atoms: C_4  and  C_11 
REMARK    6  A    between atoms: C_5  and  C_12 
REMARK    7  A    between atoms: C_5  and  C_13 
REMARK    8  A    between atoms: C_6  and  C_15 
REMARK    9  A    between atoms: C_6  and  C_16 
REMARK   10  A    between atoms: C_7  and  C_23 
REMARK   11  A    between atoms: C_9  and  C_17 
REMARK   12  A    between atoms: C_9  and  C_18 
REMARK   13  A    between atoms: C_14  and  C_19 
REMARK   14  A    between atoms: C_14  and  C_20 
REMARK   15  A    between atoms: C_21  and  C_22 
ROOT
HETATM    1  O   UNL     1     124.828 166.596 -24.463  1.00  0.00    -0.776 OA
HETATM    2  H   UNL     1     125.206 166.048 -25.164  1.00  0.00     0.167 HD
ENDROOT
BRANCH   1   3
HETATM    3  C   UNL     1     123.502 166.602 -24.212  1.00  0.00     0.139 C 
HETATM    4  O   UNL     1     123.093 166.408 -23.076  1.00  0.00    -0.650 OA
BRANCH   3   5
HETATM    5  C   UNL     1     122.531 166.852 -25.331  1.00  0.00     0.113 C 
BRANCH   5   6
HETATM    6  C   UNL     1     121.094 166.561 -24.884  1.00  0.00     0.037 C 
BRANCH   6   7
HETATM    7  C   UNL     1     120.229 166.209 -26.070  1.00  0.00    -0.030 C 
HETATM    8  C   UNL     1     119.746 164.989 -26.390  1.00  0.00    -0.027 C 
BRANCH   8   9
HETATM    9  C   UNL     1     119.956 163.690 -25.642  1.00  0.00     0.053 C 
BRANCH   9  10
HETATM   10  C   UNL     1     118.645 162.976 -25.429  1.00  0.00    -0.027 C 
HETATM   11  C   UNL     1     117.857 163.088 -24.344  1.00  0.00    -0.027 C 
BRANCH  11  12
HETATM   12  C   UNL     1     118.112 163.993 -23.168  1.00  0.00     0.053 C 
BRANCH  12  13
HETATM   13  C   UNL     1     117.510 165.357 -23.397  1.00  0.00    -0.027 C 
HETATM   14  C   UNL     1     117.922 166.518 -22.854  1.00  0.00    -0.027 C 
BRANCH  14  15
HETATM   15  C   UNL     1     119.044 166.685 -21.864  1.00  0.00     0.053 C 
BRANCH  15  16
HETATM   16  C   UNL     1     118.938 168.062 -21.246  1.00  0.00    -0.027 C 
HETATM   17  C   UNL     1     119.720 169.136 -21.477  1.00  0.00    -0.027 C 
BRANCH  17  18
HETATM   18  C   UNL     1     120.884 169.226 -22.429  1.00  0.00     0.053 C 
BRANCH  18  19
HETATM   19  C   UNL     1     120.673 170.342 -23.425  1.00  0.00    -0.027 C 
HETATM   20  C   UNL     1     120.768 171.669 -23.204  1.00  0.00    -0.027 C 
BRANCH  20  21
HETATM   21  C   UNL     1     121.164 172.351 -21.918  1.00  0.00     0.053 C 
BRANCH  21  22
HETATM   22  C   UNL     1     122.640 172.674 -21.913  1.00  0.00    -0.027 C 
HETATM   23  C   UNL     1     123.224 173.813 -21.491  1.00  0.00    -0.031 C 
BRANCH  23  24
HETATM   24  C   UNL     1     122.525 175.031 -20.945  1.00  0.00     0.022 C 
HETATM   25  C   UNL     1     122.120 176.010 -22.040  1.00  0.00     0.009 C 
ENDBRANCH  23  24
ENDBRANCH  21  22
ENDBRANCH  20  21
ENDBRANCH  18  19
ENDBRANCH  17  18
ENDBRANCH  15  16
ENDBRANCH  14  15
ENDBRANCH  12  13
ENDBRANCH  11  12
ENDBRANCH   9  10
ENDBRANCH   8   9
ENDBRANCH   6   7
ENDBRANCH   5   6
ENDBRANCH   3   5
ENDBRANCH   1   3
TORSDOF 15
ENDMDL
MODEL 6
REMARK VINA RESULT:      -5.3      2.535      6.457
REMARK  15 active torsions:
REMARK  status: ('A' for Active; 'I' for Inactive)
REMARK    1  A    between atoms: O_1  and  C_23 
REMARK    2  A    between atoms: C_3  and  C_7 
REMARK    3  A    between atoms: C_3  and  C_8 
REMARK    4  A    between atoms: C_4  and  C_10 
REMARK    5  A    between atoms: C_4  and  C_11 
REMARK    6  A    between atoms: C_5  and  C_12 
REMARK    7  A    between atoms: C_5  and  C_13 
REMARK    8  A    between atoms: C_6  and  C_15 
REMARK    9  A    between atoms: C_6  and  C_16 
REMARK   10  A    between atoms: C_7  and  C_23 
REMARK   11  A    between atoms: C_9  and  C_17 
REMARK   12  A    between atoms: C_9  and  C_18 
REMARK   13  A    between atoms: C_14  and  C_19 
REMARK   14  A    between atoms: C_14  and  C_20 
REMARK   15  A    between atoms: C_21  and  C_22 
ROOT
HETATM    1  O   UNL     1     115.728 156.068 -25.753  1.00  0.00    -0.776 OA
HETATM    2  H   UNL     1     115.898 155.174 -25.423  1.00  0.00     0.167 HD
ENDROOT
BRANCH   1   3
HETATM    3  C   UNL     1     115.983 156.405 -27.035  1.00  0.00     0.139 C 
HETATM    4  O   UNL     1     116.439 155.575 -27.808  1.00  0.00    -0.650 OA
BRANCH   3   5
HETATM    5  C   UNL     1     115.700 157.802 -27.509  1.00  0.00     0.113 C 
BRANCH   5   6
HETATM    6  C   UNL     1     116.996 158.612 -27.632  1.00  0.00     0.037 C 
BRANCH   6   7
HETATM    7  C   UNL     1     117.603 158.855 -26.270  1.00  0.00    -0.030 C 
HETATM    8  C   UNL     1     117.627 160.020 -25.589  1.00  0.00    -0.027 C 
BRANCH   8   9
HETATM    9  C   UNL     1     117.057 161.353 -26.022  1.00  0.00     0.053 C 
BRANCH   9  10
HETATM   10  C   UNL     1     116.976 162.307 -24.857  1.00  0.00    -0.027 C 
HETATM   11  C   UNL     1     117.917 163.202 -24.507  1.00  0.00    -0.027 C 
BRANCH  11  12
HETATM   12  C   UNL     1     119.201 163.457 -25.253  1.00  0.00     0.053 C 
BRANCH  12  13
HETATM   13  C   UNL     1     120.251 162.442 -24.878  1.00  0.00    -0.027 C 
HETATM   14  C   UNL     1     121.190 161.920 -25.690  1.00  0.00    -0.027 C 
BRANCH  14  15
HETATM   15  C   UNL     1     121.352 162.208 -27.158  1.00  0.00     0.053 C 
BRANCH  15  16
HETATM   16  C   UNL     1     120.326 161.401 -27.923  1.00  0.00    -0.027 C 
HETATM   17  C   UNL     1     120.372 160.092 -28.242  1.00  0.00    -0.027 C 
BRANCH  17  18
HETATM   18  C   UNL     1     121.458 159.108 -27.892  1.00  0.00     0.053 C 
BRANCH  18  19
HETATM   19  C   UNL     1     120.865 157.767 -27.529  1.00  0.00    -0.027 C 
HETATM   20  C   UNL     1     120.383 156.828 -28.368  1.00  0.00    -0.027 C 
BRANCH  20  21
HETATM   21  C   UNL     1     120.374 156.874 -29.876  1.00  0.00     0.053 C 
BRANCH  21  22
HETATM   22  C   UNL     1     118.990 157.189 -30.396  1.00  0.00    -0.027 C 
HETATM   23  C   UNL     1     118.073 156.314 -30.853  1.00  0.00    -0.031 C 
BRANCH  23  24
HETATM   24  C   UNL     1     118.235 154.821 -30.966  1.00  0.00     0.022 C 
HETATM   25  C   UNL     1     116.898 154.091 -31.012  1.00  0.00     0.009 C 
ENDBRANCH  23  24
ENDBRANCH  21  22
ENDBRANCH  20  21
ENDBRANCH  18  19
ENDBRANCH  17  18
ENDBRANCH  15  16
ENDBRANCH  14  15
ENDBRANCH  12  13
ENDBRANCH  11  12
ENDBRANCH   9  10
ENDBRANCH   8   9
ENDBRANCH   6   7
ENDBRANCH   5   6
ENDBRANCH   3   5
ENDBRANCH   1   3
TORSDOF 15
ENDMDL
MODEL 7
REMARK VINA RESULT:      -5.2      9.850     15.917
REMARK  15 active torsions:
REMARK  status: ('A' for Active; 'I' for Inactive)
REMARK    1  A    between atoms: O_1  and  C_23 
REMARK    2  A    between atoms: C_3  and  C_7 
REMARK    3  A    between atoms: C_3  and  C_8 
REMARK    4  A    between atoms: C_4  and  C_10 
REMARK    5  A    between atoms: C_4  and  C_11 
REMARK    6  A    between atoms: C_5  and  C_12 
REMARK    7  A    between atoms: C_5  and  C_13 
REMARK    8  A    between atoms: C_6  and  C_15 
REMARK    9  A    between atoms: C_6  and  C_16 
REMARK   10  A    between atoms: C_7  and  C_23 
REMARK   11  A    between atoms: C_9  and  C_17 
REMARK   12  A    between atoms: C_9  and  C_18 
REMARK   13  A    between atoms: C_14  and  C_19 
REMARK   14  A    between atoms: C_14  and  C_20 
REMARK   15  A    between atoms: C_21  and  C_22 
ROOT
HETATM    1  O   UNL     1     116.396 149.488 -31.734  1.00  0.00    -0.776 OA
HETATM    2  H   UNL     1     116.960 150.242 -31.956  1.00  0.00     0.167 HD
ENDROOT
BRANCH   1   3
HETATM    3  C   UNL     1     115.810 148.741 -32.694  1.00  0.00     0.139 C 
HETATM    4  O   UNL     1     116.245 148.760 -33.837  1.00  0.00    -0.650 OA
BRANCH   3   5
HETATM    5  C   UNL     1     114.624 147.885 -32.353  1.00  0.00     0.113 C 
BRANCH   5   6
HETATM    6  C   UNL     1     114.544 146.666 -33.279  1.00  0.00     0.037 C 
BRANCH   6   7
HETATM    7  C   UNL     1     114.171 145.428 -32.498  1.00  0.00    -0.030 C 
HETATM    8  C   UNL     1     113.547 144.328 -32.970  1.00  0.00    -0.027 C 
BRANCH   8   9
HETATM    9  C   UNL     1     113.073 144.073 -34.385  1.00  0.00     0.053 C 
BRANCH   9  10
HETATM   10  C   UNL     1     113.853 142.948 -35.017  1.00  0.00    -0.027 C 
HETATM   11  C   UNL     1     114.880 143.089 -35.875  1.00  0.00    -0.027 C 
BRANCH  11  12
HETATM   12  C   UNL     1     115.477 144.400 -36.315  1.00  0.00     0.053 C 
BRANCH  12  13
HETATM   13  C   UNL     1     116.551 144.851 -35.357  1.00  0.00    -0.027 C 
HETATM   14  C   UNL     1     117.863 144.989 -35.628  1.00  0.00    -0.027 C 
BRANCH  14  15
HETATM   15  C   UNL     1     118.536 144.672 -36.937  1.00  0.00     0.053 C 
BRANCH  15  16
HETATM   16  C   UNL     1     119.528 143.554 -36.709  1.00  0.00    -0.027 C 
HETATM   17  C   UNL     1     119.342 142.231 -36.891  1.00  0.00    -0.027 C 
BRANCH  17  18
HETATM   18  C   UNL     1     118.095 141.548 -37.386  1.00  0.00     0.053 C 
BRANCH  18  19
HETATM   19  C   UNL     1     118.141 140.068 -37.083  1.00  0.00    -0.027 C 
HETATM   20  C   UNL     1     117.112 139.270 -36.730  1.00  0.00    -0.027 C 
BRANCH  20  21
HETATM   21  C   UNL     1     115.659 139.659 -36.609  1.00  0.00     0.053 C 
BRANCH  21  22
HETATM   22  C   UNL     1     114.825 138.954 -37.653  1.00  0.00    -0.027 C 
HETATM   23  C   UNL     1     114.701 139.281 -38.954  1.00  0.00    -0.031 C 
BRANCH  23  24
HETATM   24  C   UNL     1     115.358 140.442 -39.654  1.00  0.00     0.022 C 
HETATM   25  C   UNL     1     114.583 141.742 -39.481  1.00  0.00     0.009 C 
ENDBRANCH  23  24
ENDBRANCH  21  22
ENDBRANCH  20  21
ENDBRANCH  18  19
ENDBRANCH  17  18
ENDBRANCH  15  16
ENDBRANCH  14  15
ENDBRANCH  12  13
ENDBRANCH  11  12
ENDBRANCH   9  10
ENDBRANCH   8   9
ENDBRANCH   6   7
ENDBRANCH   5   6
ENDBRANCH   3   5
ENDBRANCH   1   3
TORSDOF 15
ENDMDL
MODEL 8
REMARK VINA RESULT:      -5.1      7.964     12.026
REMARK  15 active torsions:
REMARK  status: ('A' for Active; 'I' for Inactive)
REMARK    1  A    between atoms: O_1  and  C_23 
REMARK    2  A    between atoms: C_3  and  C_7 
REMARK    3  A    between atoms: C_3  and  C_8 
REMARK    4  A    between atoms: C_4  and  C_10 
REMARK    5  A    between atoms: C_4  and  C_11 
REMARK    6  A    between atoms: C_5  and  C_12 
REMARK    7  A    between atoms: C_5  and  C_13 
REMARK    8  A    between atoms: C_6  and  C_15 
REMARK    9  A    between atoms: C_6  and  C_16 
REMARK   10  A    between atoms: C_7  and  C_23 
REMARK   11  A    between atoms: C_9  and  C_17 
REMARK   12  A    between atoms: C_9  and  C_18 
REMARK   13  A    between atoms: C_14  and  C_19 
REMARK   14  A    between atoms: C_14  and  C_20 
REMARK   15  A    between atoms: C_21  and  C_22 
ROOT
HETATM    1  O   UNL     1     113.475 141.049 -38.120  1.00  0.00    -0.776 OA
HETATM    2  H   UNL     1     112.630 140.886 -38.560  1.00  0.00     0.167 HD
ENDROOT
BRANCH   1   3
HETATM    3  C   UNL     1     113.707 140.621 -36.860  1.00  0.00     0.139 C 
HETATM    4  O   UNL     1     113.312 139.520 -36.505  1.00  0.00    -0.650 OA
BRANCH   3   5
HETATM    5  C   UNL     1     114.453 141.502 -35.899  1.00  0.00     0.113 C 
BRANCH   5   6
HETATM    6  C   UNL     1     115.908 141.043 -35.753  1.00  0.00     0.037 C 
BRANCH   6   7
HETATM    7  C   UNL     1     116.761 141.619 -36.858  1.00  0.00    -0.030 C 
HETATM    8  C   UNL     1     117.345 142.837 -36.882  1.00  0.00    -0.027 C 
BRANCH   8   9
HETATM    9  C   UNL     1     117.284 143.909 -35.815  1.00  0.00     0.053 C 
BRANCH   9  10
HETATM   10  C   UNL     1     116.684 145.179 -36.364  1.00  0.00    -0.027 C 
HETATM   11  C   UNL     1     115.485 145.689 -36.031  1.00  0.00    -0.027 C 
BRANCH  11  12
HETATM   12  C   UNL     1     114.546 145.114 -35.003  1.00  0.00     0.053 C 
BRANCH  12  13
HETATM   13  C   UNL     1     115.149 145.188 -33.622  1.00  0.00    -0.027 C 
HETATM   14  C   UNL     1     114.989 146.183 -32.728  1.00  0.00    -0.027 C 
BRANCH  14  15
HETATM   15  C   UNL     1     114.211 147.453 -32.945  1.00  0.00     0.053 C 
BRANCH  15  16
HETATM   16  C   UNL     1     113.815 148.011 -31.596  1.00  0.00    -0.027 C 
HETATM   17  C   UNL     1     114.566 148.742 -30.749  1.00  0.00    -0.027 C 
BRANCH  17  18
HETATM   18  C   UNL     1     115.987 149.198 -30.955  1.00  0.00     0.053 C 
BRANCH  18  19
HETATM   19  C   UNL     1     116.038 150.687 -31.203  1.00  0.00    -0.027 C 
HETATM   20  C   UNL     1     116.730 151.336 -32.162  1.00  0.00    -0.027 C 
BRANCH  20  21
HETATM   21  C   UNL     1     117.574 150.720 -33.250  1.00  0.00     0.053 C 
BRANCH  21  22
HETATM   22  C   UNL     1     116.716 149.943 -34.221  1.00  0.00    -0.027 C 
HETATM   23  C   UNL     1     117.030 148.792 -34.846  1.00  0.00    -0.031 C 
BRANCH  23  24
HETATM   24  C   UNL     1     118.325 148.031 -34.726  1.00  0.00     0.022 C 
HETATM   25  C   UNL     1     118.369 147.146 -33.487  1.00  0.00     0.009 C 
ENDBRANCH  23  24
ENDBRANCH  21  22
ENDBRANCH  20  21
ENDBRANCH  18  19
ENDBRANCH  17  18
ENDBRANCH  15  16
ENDBRANCH  14  15
ENDBRANCH  12  13
ENDBRANCH  11  12
ENDBRANCH   9  10
ENDBRANCH   8   9
ENDBRANCH   6   7
ENDBRANCH   5   6
ENDBRANCH   3   5
ENDBRANCH   1   3
TORSDOF 15
ENDMDL
MODEL 9
REMARK VINA RESULT:      -5.1     10.078     14.787
REMARK  15 active torsions:
REMARK  status: ('A' for Active; 'I' for Inactive)
REMARK    1  A    between atoms: O_1  and  C_23 
REMARK    2  A    between atoms: C_3  and  C_7 
REMARK    3  A    between atoms: C_3  and  C_8 
REMARK    4  A    between atoms: C_4  and  C_10 
REMARK    5  A    between atoms: C_4  and  C_11 
REMARK    6  A    between atoms: C_5  and  C_12 
REMARK    7  A    between atoms: C_5  and  C_13 
REMARK    8  A    between atoms: C_6  and  C_15 
REMARK    9  A    between atoms: C_6  and  C_16 
REMARK   10  A    between atoms: C_7  and  C_23 
REMARK   11  A    between atoms: C_9  and  C_17 
REMARK   12  A    between atoms: C_9  and  C_18 
REMARK   13  A    between atoms: C_14  and  C_19 
REMARK   14  A    between atoms: C_14  and  C_20 
REMARK   15  A    between atoms: C_21  and  C_22 
ROOT
HETATM    1  O   UNL     1     124.860 169.723 -24.040  1.00  0.00    -0.776 OA
HETATM    2  H   UNL     1     125.618 169.131 -23.939  1.00  0.00     0.167 HD
ENDROOT
BRANCH   1   3
HETATM    3  C   UNL     1     124.357 170.407 -22.991  1.00  0.00     0.139 C 
HETATM    4  O   UNL     1     125.064 170.655 -22.025  1.00  0.00    -0.650 OA
BRANCH   3   5
HETATM    5  C   UNL     1     122.926 170.865 -23.016  1.00  0.00     0.113 C 
BRANCH   5   6
HETATM    6  C   UNL     1     122.157 170.323 -21.806  1.00  0.00     0.037 C 
BRANCH   6   7
HETATM    7  C   UNL     1     122.046 171.376 -20.730  1.00  0.00    -0.030 C 
HETATM    8  C   UNL     1     120.921 171.784 -20.105  1.00  0.00    -0.027 C 
BRANCH   8   9
HETATM    9  C   UNL     1     119.509 171.286 -20.331  1.00  0.00     0.053 C 
BRANCH   9  10
HETATM   10  C   UNL     1     119.228 170.068 -19.488  1.00  0.00    -0.027 C 
HETATM   11  C   UNL     1     118.831 168.868 -19.949  1.00  0.00    -0.027 C 
BRANCH  11  12
HETATM   12  C   UNL     1     118.650 168.505 -21.399  1.00  0.00     0.053 C 
BRANCH  12  13
HETATM   13  C   UNL     1     118.934 167.041 -21.627  1.00  0.00    -0.027 C 
HETATM   14  C   UNL     1     119.838 166.522 -22.478  1.00  0.00    -0.027 C 
BRANCH  14  15
HETATM   15  C   UNL     1     120.722 167.300 -23.417  1.00  0.00     0.053 C 
BRANCH  15  16
HETATM   16  C   UNL     1     120.005 167.447 -24.741  1.00  0.00    -0.027 C 
HETATM   17  C   UNL     1     120.064 166.628 -25.811  1.00  0.00    -0.027 C 
BRANCH  17  18
HETATM   18  C   UNL     1     120.852 165.351 -25.936  1.00  0.00     0.053 C 
BRANCH  18  19
HETATM   19  C   UNL     1     120.049 164.177 -25.424  1.00  0.00    -0.027 C 
HETATM   20  C   UNL     1     119.258 163.350 -26.138  1.00  0.00    -0.027 C 
BRANCH  20  21
HETATM   21  C   UNL     1     119.031 163.370 -27.629  1.00  0.00     0.053 C 
BRANCH  21  22
HETATM   22  C   UNL     1     119.008 161.967 -28.189  1.00  0.00    -0.027 C 
HETATM   23  C   UNL     1     120.020 161.077 -28.200  1.00  0.00    -0.031 C 
BRANCH  23  24
HETATM   24  C   UNL     1     121.413 161.296 -27.669  1.00  0.00     0.022 C 
HETATM   25  C   UNL     1     122.293 162.070 -28.643  1.00  0.00     0.009 C 
ENDBRANCH  23  24
ENDBRANCH  21  22
ENDBRANCH  20  21
ENDBRANCH  18  19
ENDBRANCH  17  18
ENDBRANCH  15  16
ENDBRANCH  14  15
ENDBRANCH  12  13
ENDBRANCH  11  12
ENDBRANCH   9  10
ENDBRANCH   8   9
ENDBRANCH   6   7
ENDBRANCH   5   6
ENDBRANCH   3   5
ENDBRANCH   1   3
TORSDOF 15
ENDMDL
MODEL 10
REMARK VINA RESULT:      -5.1      1.903      4.670
REMARK  15 active torsions:
REMARK  status: ('A' for Active; 'I' for Inactive)
REMARK    1  A    between atoms: O_1  and  C_23 
REMARK    2  A    between atoms: C_3  and  C_7 
REMARK    3  A    between atoms: C_3  and  C_8 
REMARK    4  A    between atoms: C_4  and  C_10 
REMARK    5  A    between atoms: C_4  and  C_11 
REMARK    6  A    between atoms: C_5  and  C_12 
REMARK    7  A    between atoms: C_5  and  C_13 
REMARK    8  A    between atoms: C_6  and  C_15 
REMARK    9  A    between atoms: C_6  and  C_16 
REMARK   10  A    between atoms: C_7  and  C_23 
REMARK   11  A    between atoms: C_9  and  C_17 
REMARK   12  A    between atoms: C_9  and  C_18 
REMARK   13  A    between atoms: C_14  and  C_19 
REMARK   14  A    between atoms: C_14  and  C_20 
REMARK   15  A    between atoms: C_21  and  C_22 
ROOT
HETATM    1  O   UNL     1     120.848 148.886 -33.236  1.00  0.00    -0.776 OA
HETATM    2  H   UNL     1     120.807 148.877 -34.202  1.00  0.00     0.167 HD
ENDROOT
BRANCH   1   3
HETATM    3  C   UNL     1     120.272 149.873 -32.516  1.00  0.00     0.139 C 
HETATM    4  O   UNL     1     119.575 149.600 -31.550  1.00  0.00    -0.650 OA
BRANCH   3   5
HETATM    5  C   UNL     1     120.495 151.307 -32.905  1.00  0.00     0.113 C 
BRANCH   5   6
HETATM    6  C   UNL     1     120.583 152.203 -31.665  1.00  0.00     0.037 C 
BRANCH   6   7
HETATM    7  C   UNL     1     119.639 153.375 -31.787  1.00  0.00    -0.030 C 
HETATM    8  C   UNL     1     119.731 154.562 -31.150  1.00  0.00    -0.027 C 
BRANCH   8   9
HETATM    9  C   UNL     1     120.796 155.000 -30.167  1.00  0.00     0.053 C 
BRANCH   9  10
HETATM   10  C   UNL     1     121.608 156.140 -30.728  1.00  0.00    -0.027 C 
HETATM   11  C   UNL     1     121.326 157.448 -30.590  1.00  0.00    -0.027 C 
BRANCH  11  12
HETATM   12  C   UNL     1     120.177 158.016 -29.799  1.00  0.00     0.053 C 
BRANCH  12  13
HETATM   13  C   UNL     1     120.555 158.189 -28.349  1.00  0.00    -0.027 C 
HETATM   14  C   UNL     1     119.804 158.755 -27.386  1.00  0.00    -0.027 C 
BRANCH  14  15
HETATM   15  C   UNL     1     118.447 159.379 -27.571  1.00  0.00     0.053 C 
BRANCH  15  16
HETATM   16  C   UNL     1     117.507 158.801 -26.536  1.00  0.00    -0.027 C 
HETATM   17  C   UNL     1     116.548 157.870 -26.715  1.00  0.00    -0.027 C 
BRANCH  17  18
HETATM   18  C   UNL     1     116.195 157.164 -27.997  1.00  0.00     0.053 C 
BRANCH  18  19
HETATM   19  C   UNL     1     117.273 156.175 -28.375  1.00  0.00    -0.027 C 
HETATM   20  C   UNL     1     117.114 154.975 -28.971  1.00  0.00    -0.027 C 
BRANCH  20  21
HETATM   21  C   UNL     1     115.822 154.362 -29.451  1.00  0.00     0.053 C 
BRANCH  21  22
HETATM   22  C   UNL     1     115.450 153.164 -28.609  1.00  0.00    -0.027 C 
HETATM   23  C   UNL     1     115.147 151.925 -29.043  1.00  0.00    -0.031 C 
BRANCH  23  24
HETATM   24  C   UNL     1     115.094 151.464 -30.477  1.00  0.00     0.022 C 
HETATM   25  C   UNL     1     116.480 151.287 -31.084  1.00  0.00     0.009 C 
ENDBRANCH  23  24
ENDBRANCH  21  22
ENDBRANCH  20  21
ENDBRANCH  18  19
ENDBRANCH  17  18
ENDBRANCH  15  16
ENDBRANCH  14  15
ENDBRANCH  12  13
ENDBRANCH  11  12
ENDBRANCH   9  10
ENDBRANCH   8   9
ENDBRANCH   6   7
ENDBRANCH   5   6
ENDBRANCH   3   5
ENDBRANCH   1   3
TORSDOF 15
ENDMDL
MODEL 11
REMARK VINA RESULT:      -5.1     12.266     17.919
REMARK  15 active torsions:
REMARK  status: ('A' for Active; 'I' for Inactive)
REMARK    1  A    between atoms: O_1  and  C_23 
REMARK    2  A    between atoms: C_3  and  C_7 
REMARK    3  A    between atoms: C_3  and  C_8 
REMARK    4  A    between atoms: C_4  and  C_10 
REMARK    5  A    between atoms: C_4  and  C_11 
REMARK    6  A    between atoms: C_5  and  C_12 
REMARK    7  A    between atoms: C_5  and  C_13 
REMARK    8  A    between atoms: C_6  and  C_15 
REMARK    9  A    between atoms: C_6  and  C_16 
REMARK   10  A    between atoms: C_7  and  C_23 
REMARK   11  A    between atoms: C_9  and  C_17 
REMARK   12  A    between atoms: C_9  and  C_18 
REMARK   13  A    between atoms: C_14  and  C_19 
REMARK   14  A    between atoms: C_14  and  C_20 
REMARK   15  A    between atoms: C_21  and  C_22 
ROOT
HETATM    1  O   UNL     1     118.590 140.641 -36.697  1.00  0.00    -0.776 OA
HETATM    2  H   UNL     1     118.080 140.125 -36.058  1.00  0.00     0.167 HD
ENDROOT
BRANCH   1   3
HETATM    3  C   UNL     1     118.332 141.948 -36.914  1.00  0.00     0.139 C 
HETATM    4  O   UNL     1     119.246 142.719 -37.169  1.00  0.00    -0.650 OA
BRANCH   3   5
HETATM    5  C   UNL     1     116.918 142.451 -36.842  1.00  0.00     0.113 C 
BRANCH   5   6
HETATM    6  C   UNL     1     116.738 143.414 -35.663  1.00  0.00     0.037 C 
BRANCH   6   7
HETATM    7  C   UNL     1     116.478 144.817 -36.157  1.00  0.00    -0.030 C 
HETATM    8  C   UNL     1     116.365 145.934 -35.407  1.00  0.00    -0.027 C 
BRANCH   8   9
HETATM    9  C   UNL     1     116.470 146.048 -33.902  1.00  0.00     0.053 C 
BRANCH   9  10
HETATM   10  C   UNL     1     115.195 146.599 -33.315  1.00  0.00    -0.027 C 
HETATM   11  C   UNL     1     114.079 145.893 -33.060  1.00  0.00    -0.027 C 
BRANCH  11  12
HETATM   12  C   UNL     1     113.918 144.409 -33.260  1.00  0.00     0.053 C 
BRANCH  12  13
HETATM   13  C   UNL     1     113.204 144.116 -34.556  1.00  0.00    -0.027 C 
HETATM   14  C   UNL     1     113.067 142.912 -35.143  1.00  0.00    -0.027 C 
BRANCH  14  15
HETATM   15  C   UNL     1     113.645 141.613 -34.647  1.00  0.00     0.053 C 
BRANCH  15  16
HETATM   16  C   UNL     1     112.789 140.478 -35.163  1.00  0.00    -0.027 C 
HETATM   17  C   UNL     1     112.870 139.854 -36.355  1.00  0.00    -0.027 C 
BRANCH  17  18
HETATM   18  C   UNL     1     113.857 140.129 -37.460  1.00  0.00     0.053 C 
BRANCH  18  19
HETATM   19  C   UNL     1     115.132 139.349 -37.242  1.00  0.00    -0.027 C 
HETATM   20  C   UNL     1     115.715 138.475 -38.089  1.00  0.00    -0.027 C 
BRANCH  20  21
HETATM   21  C   UNL     1     115.256 138.111 -39.479  1.00  0.00     0.053 C 
BRANCH  21  22
HETATM   22  C   UNL     1     113.927 137.394 -39.436  1.00  0.00    -0.027 C 
HETATM   23  C   UNL     1     113.487 136.441 -40.281  1.00  0.00    -0.031 C 
BRANCH  23  24
HETATM   24  C   UNL     1     114.224 135.890 -41.475  1.00  0.00     0.022 C 
HETATM   25  C   UNL     1     114.634 134.435 -41.287  1.00  0.00     0.009 C 
ENDBRANCH  23  24
ENDBRANCH  21  22
ENDBRANCH  20  21
ENDBRANCH  18  19
ENDBRANCH  17  18
ENDBRANCH  15  16
ENDBRANCH  14  15
ENDBRANCH  12  13
ENDBRANCH  11  12
ENDBRANCH   9  10
ENDBRANCH   8   9
ENDBRANCH   6   7
ENDBRANCH   5   6
ENDBRANCH   3   5
ENDBRANCH   1   3
TORSDOF 15
ENDMDL
MODEL 12
REMARK VINA RESULT:      -5.1      3.048      5.221
REMARK  15 active torsions:
REMARK  status: ('A' for Active; 'I' for Inactive)
REMARK    1  A    between atoms: O_1  and  C_23 
REMARK    2  A    between atoms: C_3  and  C_7 
REMARK    3  A    between atoms: C_3  and  C_8 
REMARK    4  A    between atoms: C_4  and  C_10 
REMARK    5  A    between atoms: C_4  and  C_11 
REMARK    6  A    between atoms: C_5  and  C_12 
REMARK    7  A    between atoms: C_5  and  C_13 
REMARK    8  A    between atoms: C_6  and  C_15 
REMARK    9  A    between atoms: C_6  and  C_16 
REMARK   10  A    between atoms: C_7  and  C_23 
REMARK   11  A    between atoms: C_9  and  C_17 
REMARK   12  A    between atoms: C_9  and  C_18 
REMARK   13  A    between atoms: C_14  and  C_19 
REMARK   14  A    between atoms: C_14  and  C_20 
REMARK   15  A    between atoms: C_21  and  C_22 
ROOT
HETATM    1  O   UNL     1     122.743 158.973 -28.529  1.00  0.00    -0.776 OA
HETATM    2  H   UNL     1     123.579 158.518 -28.697  1.00  0.00     0.167 HD
ENDROOT
BRANCH   1   3
HETATM    3  C   UNL     1     121.601 158.289 -28.302  1.00  0.00     0.139 C 
HETATM    4  O   UNL     1     121.494 157.591 -27.304  1.00  0.00    -0.650 OA
BRANCH   3   5
HETATM    5  C   UNL     1     120.463 158.392 -29.277  1.00  0.00     0.113 C 
BRANCH   5   6
HETATM    6  C   UNL     1     120.767 157.607 -30.558  1.00  0.00     0.037 C 
BRANCH   6   7
HETATM    7  C   UNL     1     121.904 156.639 -30.332  1.00  0.00    -0.030 C 
HETATM    8  C   UNL     1     121.908 155.315 -30.596  1.00  0.00    -0.027 C 
BRANCH   8   9
HETATM    9  C   UNL     1     120.782 154.488 -31.178  1.00  0.00     0.053 C 
BRANCH   9  10
HETATM   10  C   UNL     1     120.228 153.536 -30.148  1.00  0.00    -0.027 C 
HETATM   11  C   UNL     1     119.195 153.785 -29.323  1.00  0.00    -0.027 C 
BRANCH  11  12
HETATM   12  C   UNL     1     118.364 155.041 -29.318  1.00  0.00     0.053 C 
BRANCH  12  13
HETATM   13  C   UNL     1     116.894 154.715 -29.411  1.00  0.00    -0.027 C 
HETATM   14  C   UNL     1     115.937 155.067 -28.533  1.00  0.00    -0.027 C 
BRANCH  14  15
HETATM   15  C   UNL     1     116.146 155.819 -27.246  1.00  0.00     0.053 C 
BRANCH  15  16
HETATM   16  C   UNL     1     115.370 157.116 -27.315  1.00  0.00    -0.027 C 
HETATM   17  C   UNL     1     115.850 158.360 -27.515  1.00  0.00    -0.027 C 
BRANCH  17  18
HETATM   18  C   UNL     1     117.286 158.755 -27.739  1.00  0.00     0.053 C 
BRANCH  18  19
HETATM   19  C   UNL     1     117.913 159.238 -26.451  1.00  0.00    -0.027 C 
HETATM   20  C   UNL     1     118.348 160.482 -26.167  1.00  0.00    -0.027 C 
BRANCH  20  21
HETATM   21  C   UNL     1     118.261 161.701 -27.051  1.00  0.00     0.053 C 
BRANCH  21  22
HETATM   22  C   UNL     1     119.244 161.607 -28.195  1.00  0.00    -0.027 C 
HETATM   23  C   UNL     1     120.546 161.953 -28.181  1.00  0.00    -0.031 C 
BRANCH  23  24
HETATM   24  C   UNL     1     121.309 162.531 -27.017  1.00  0.00     0.022 C 
HETATM   25  C   UNL     1     121.920 161.456 -26.128  1.00  0.00     0.009 C 
ENDBRANCH  23  24
ENDBRANCH  21  22
ENDBRANCH  20  21
ENDBRANCH  18  19
ENDBRANCH  17  18
ENDBRANCH  15  16
ENDBRANCH  14  15
ENDBRANCH  12  13
ENDBRANCH  11  12
ENDBRANCH   9  10
ENDBRANCH   8   9
ENDBRANCH   6   7
ENDBRANCH   5   6
ENDBRANCH   3   5
ENDBRANCH   1   3
TORSDOF 15
ENDMDL
MODEL 13
REMARK VINA RESULT:      -5.1      1.623      2.975
REMARK  15 active torsions:
REMARK  status: ('A' for Active; 'I' for Inactive)
REMARK    1  A    between atoms: O_1  and  C_23 
REMARK    2  A    between atoms: C_3  and  C_7 
REMARK    3  A    between atoms: C_3  and  C_8 
REMARK    4  A    between atoms: C_4  and  C_10 
REMARK    5  A    between atoms: C_4  and  C_11 
REMARK    6  A    between atoms: C_5  and  C_12 
REMARK    7  A    between atoms: C_5  and  C_13 
REMARK    8  A    between atoms: C_6  and  C_15 
REMARK    9  A    between atoms: C_6  and  C_16 
REMARK   10  A    between atoms: C_7  and  C_23 
REMARK   11  A    between atoms: C_9  and  C_17 
REMARK   12  A    between atoms: C_9  and  C_18 
REMARK   13  A    between atoms: C_14  and  C_19 
REMARK   14  A    between atoms: C_14  and  C_20 
REMARK   15  A    between atoms: C_21  and  C_22 
ROOT
HETATM    1  O   UNL     1     120.482 152.732 -29.211  1.00  0.00    -0.776 OA
HETATM    2  H   UNL     1     120.409 152.054 -28.525  1.00  0.00     0.167 HD
ENDROOT
BRANCH   1   3
HETATM    3  C   UNL     1     119.918 152.568 -30.427  1.00  0.00     0.139 C 
HETATM    4  O   UNL     1     119.375 151.510 -30.712  1.00  0.00    -0.650 OA
BRANCH   3   5
HETATM    5  C   UNL     1     119.959 153.690 -31.425  1.00  0.00     0.113 C 
BRANCH   5   6
HETATM    6  C   UNL     1     118.772 153.605 -32.391  1.00  0.00     0.037 C 
BRANCH   6   7
HETATM    7  C   UNL     1     117.502 154.068 -31.717  1.00  0.00    -0.030 C 
HETATM    8  C   UNL     1     117.340 155.177 -30.964  1.00  0.00    -0.027 C 
BRANCH   8   9
HETATM    9  C   UNL     1     118.384 156.216 -30.618  1.00  0.00     0.053 C 
BRANCH   9  10
HETATM   10  C   UNL     1     118.051 157.543 -31.251  1.00  0.00    -0.027 C 
HETATM   11  C   UNL     1     117.931 158.715 -30.602  1.00  0.00    -0.027 C 
BRANCH  11  12
HETATM   12  C   UNL     1     118.164 158.926 -29.129  1.00  0.00     0.053 C 
BRANCH  12  13
HETATM   13  C   UNL     1     116.938 158.558 -28.332  1.00  0.00    -0.027 C 
HETATM   14  C   UNL     1     116.765 158.716 -27.006  1.00  0.00    -0.027 C 
BRANCH  14  15
HETATM   15  C   UNL     1     117.784 159.250 -26.036  1.00  0.00     0.053 C 
BRANCH  15  16
HETATM   16  C   UNL     1     117.144 160.355 -25.225  1.00  0.00    -0.027 C 
HETATM   17  C   UNL     1     117.163 161.680 -25.469  1.00  0.00    -0.027 C 
BRANCH  17  18
HETATM   18  C   UNL     1     117.818 162.381 -26.630  1.00  0.00     0.053 C 
BRANCH  18  19
HETATM   19  C   UNL     1     119.227 162.797 -26.277  1.00  0.00    -0.027 C 
HETATM   20  C   UNL     1     120.378 162.302 -26.775  1.00  0.00    -0.027 C 
BRANCH  20  21
HETATM   21  C   UNL     1     120.528 161.251 -27.846  1.00  0.00     0.053 C 
BRANCH  21  22
HETATM   22  C   UNL     1     121.960 160.775 -27.936  1.00  0.00    -0.027 C 
HETATM   23  C   UNL     1     122.398 159.597 -28.421  1.00  0.00    -0.031 C 
BRANCH  23  24
HETATM   24  C   UNL     1     121.548 158.480 -28.968  1.00  0.00     0.022 C 
HETATM   25  C   UNL     1     121.158 157.466 -27.900  1.00  0.00     0.009 C 
ENDBRANCH  23  24
ENDBRANCH  21  22
ENDBRANCH  20  21
ENDBRANCH  18  19
ENDBRANCH  17  18
ENDBRANCH  15  16
ENDBRANCH  14  15
ENDBRANCH  12  13
ENDBRANCH  11  12
ENDBRANCH   9  10
ENDBRANCH   8   9
ENDBRANCH   6   7
ENDBRANCH   5   6
ENDBRANCH   3   5
ENDBRANCH   1   3
TORSDOF 15
ENDMDL
MODEL 14
REMARK VINA RESULT:      -5.0      7.819     13.854
REMARK  15 active torsions:
REMARK  status: ('A' for Active; 'I' for Inactive)
REMARK    1  A    between atoms: O_1  and  C_23 
REMARK    2  A    between atoms: C_3  and  C_7 
REMARK    3  A    between atoms: C_3  and  C_8 
REMARK    4  A    between atoms: C_4  and  C_10 
REMARK    5  A    between atoms: C_4  and  C_11 
REMARK    6  A    between atoms: C_5  and  C_12 
REMARK    7  A    between atoms: C_5  and  C_13 
REMARK    8  A    between atoms: C_6  and  C_15 
REMARK    9  A    between atoms: C_6  and  C_16 
REMARK   10  A    between atoms: C_7  and  C_23 
REMARK   11  A    between atoms: C_9  and  C_17 
REMARK   12  A    between atoms: C_9  and  C_18 
REMARK   13  A    between atoms: C_14  and  C_19 
REMARK   14  A    between atoms: C_14  and  C_20 
REMARK   15  A    between atoms: C_21  and  C_22 
ROOT
HETATM    1  O   UNL     1     118.371 153.678 -31.943  1.00  0.00    -0.776 OA
HETATM    2  H   UNL     1     117.478 153.729 -32.311  1.00  0.00     0.167 HD
ENDROOT
BRANCH   1   3
HETATM    3  C   UNL     1     118.896 152.505 -31.529  1.00  0.00     0.139 C 
HETATM    4  O   UNL     1     119.062 152.295 -30.336  1.00  0.00    -0.650 OA
BRANCH   3   5
HETATM    5  C   UNL     1     119.271 151.458 -32.540  1.00  0.00     0.113 C 
BRANCH   5   6
HETATM    6  C   UNL     1     118.048 150.630 -32.950  1.00  0.00     0.037 C 
BRANCH   6   7
HETATM    7  C   UNL     1     118.355 149.153 -32.870  1.00  0.00    -0.030 C 
HETATM    8  C   UNL     1     117.569 148.138 -33.286  1.00  0.00    -0.027 C 
BRANCH   8   9
HETATM    9  C   UNL     1     116.201 148.233 -33.927  1.00  0.00     0.053 C 
BRANCH   9  10
HETATM   10  C   UNL     1     115.113 148.109 -32.891  1.00  0.00    -0.027 C 
HETATM   11  C   UNL     1     114.350 147.022 -32.680  1.00  0.00    -0.027 C 
BRANCH  11  12
HETATM   12  C   UNL     1     114.482 145.707 -33.403  1.00  0.00     0.053 C 
BRANCH  12  13
HETATM   13  C   UNL     1     113.161 145.282 -33.994  1.00  0.00    -0.027 C 
HETATM   14  C   UNL     1     112.889 144.106 -34.590  1.00  0.00    -0.027 C 
BRANCH  14  15
HETATM   15  C   UNL     1     113.868 142.988 -34.834  1.00  0.00     0.053 C 
BRANCH  15  16
HETATM   16  C   UNL     1     113.208 141.957 -35.723  1.00  0.00    -0.027 C 
HETATM   17  C   UNL     1     113.776 141.216 -36.696  1.00  0.00    -0.027 C 
BRANCH  17  18
HETATM   18  C   UNL     1     115.221 141.226 -37.120  1.00  0.00     0.053 C 
BRANCH  18  19
HETATM   19  C   UNL     1     116.095 140.615 -36.049  1.00  0.00    -0.027 C 
HETATM   20  C   UNL     1     117.326 141.013 -35.668  1.00  0.00    -0.027 C 
BRANCH  20  21
HETATM   21  C   UNL     1     118.099 142.201 -36.186  1.00  0.00     0.053 C 
BRANCH  21  22
HETATM   22  C   UNL     1     117.797 143.437 -35.370  1.00  0.00    -0.027 C 
HETATM   23  C   UNL     1     117.123 144.533 -35.770  1.00  0.00    -0.031 C 
BRANCH  23  24
HETATM   24  C   UNL     1     116.535 144.776 -37.135  1.00  0.00     0.022 C 
HETATM   25  C   UNL     1     115.283 145.642 -37.085  1.00  0.00     0.009 C 
ENDBRANCH  23  24
ENDBRANCH  21  22
ENDBRANCH  20  21
ENDBRANCH  18  19
ENDBRANCH  17  18
ENDBRANCH  15  16
ENDBRANCH  14  15
ENDBRANCH  12  13
ENDBRANCH  11  12
ENDBRANCH   9  10
ENDBRANCH   8   9
ENDBRANCH   6   7
ENDBRANCH   5   6
ENDBRANCH   3   5
ENDBRANCH   1   3
TORSDOF 15
ENDMDL
MODEL 15
REMARK VINA RESULT:      -5.0      6.214      9.811
REMARK  15 active torsions:
REMARK  status: ('A' for Active; 'I' for Inactive)
REMARK    1  A    between atoms: O_1  and  C_23 
REMARK    2  A    between atoms: C_3  and  C_7 
REMARK    3  A    between atoms: C_3  and  C_8 
REMARK    4  A    between atoms: C_4  and  C_10 
REMARK    5  A    between atoms: C_4  and  C_11 
REMARK    6  A    between atoms: C_5  and  C_12 
REMARK    7  A    between atoms: C_5  and  C_13 
REMARK    8  A    between atoms: C_6  and  C_15 
REMARK    9  A    between atoms: C_6  and  C_16 
REMARK   10  A    between atoms: C_7  and  C_23 
REMARK   11  A    between atoms: C_9  and  C_17 
REMARK   12  A    between atoms: C_9  and  C_18 
REMARK   13  A    between atoms: C_14  and  C_19 
REMARK   14  A    between atoms: C_14  and  C_20 
REMARK   15  A    between atoms: C_21  and  C_22 
ROOT
HETATM    1  O   UNL     1     116.889 139.926 -35.676  1.00  0.00    -0.776 OA
HETATM    2  H   UNL     1     116.006 139.587 -35.478  1.00  0.00     0.167 HD
ENDROOT
BRANCH   1   3
HETATM    3  C   UNL     1     117.094 141.228 -35.970  1.00  0.00     0.139 C 
HETATM    4  O   UNL     1     118.056 141.818 -35.499  1.00  0.00    -0.650 OA
BRANCH   3   5
HETATM    5  C   UNL     1     116.139 141.946 -36.880  1.00  0.00     0.113 C 
BRANCH   5   6
HETATM    6  C   UNL     1     115.056 142.672 -36.074  1.00  0.00     0.037 C 
BRANCH   6   7
HETATM    7  C   UNL     1     115.261 144.167 -36.132  1.00  0.00    -0.030 C 
HETATM    8  C   UNL     1     115.802 144.950 -35.175  1.00  0.00    -0.027 C 
BRANCH   8   9
HETATM    9  C   UNL     1     116.329 144.522 -33.822  1.00  0.00     0.053 C 
BRANCH   9  10
HETATM   10  C   UNL     1     117.805 144.809 -33.706  1.00  0.00    -0.027 C 
HETATM   11  C   UNL     1     118.360 146.028 -33.578  1.00  0.00    -0.027 C 
BRANCH  11  12
HETATM   12  C   UNL     1     117.603 147.326 -33.470  1.00  0.00     0.053 C 
BRANCH  12  13
HETATM   13  C   UNL     1     117.586 148.052 -34.792  1.00  0.00    -0.027 C 
HETATM   14  C   UNL     1     117.003 149.238 -35.049  1.00  0.00    -0.027 C 
BRANCH  14  15
HETATM   15  C   UNL     1     116.202 150.062 -34.077  1.00  0.00     0.053 C 
BRANCH  15  16
HETATM   16  C   UNL     1     117.025 151.266 -33.674  1.00  0.00    -0.027 C 
HETATM   17  C   UNL     1     117.293 151.707 -32.429  1.00  0.00    -0.027 C 
BRANCH  17  18
HETATM   18  C   UNL     1     116.848 151.089 -31.130  1.00  0.00     0.053 C 
BRANCH  18  19
HETATM   19  C   UNL     1     115.467 151.574 -30.754  1.00  0.00    -0.027 C 
HETATM   20  C   UNL     1     115.138 152.418 -29.755  1.00  0.00    -0.027 C 
BRANCH  20  21
HETATM   21  C   UNL     1     116.080 153.121 -28.809  1.00  0.00     0.053 C 
BRANCH  21  22
HETATM   22  C   UNL     1     116.735 154.305 -29.484  1.00  0.00    -0.027 C 
HETATM   23  C   UNL     1     118.049 154.485 -29.718  1.00  0.00    -0.031 C 
BRANCH  23  24
HETATM   24  C   UNL     1     119.165 153.547 -29.338  1.00  0.00     0.022 C 
HETATM   25  C   UNL     1     120.066 153.205 -30.518  1.00  0.00     0.009 C 
ENDBRANCH  23  24
ENDBRANCH  21  22
ENDBRANCH  20  21
ENDBRANCH  18  19
ENDBRANCH  17  18
ENDBRANCH  15  16
ENDBRANCH  14  15
ENDBRANCH  12  13
ENDBRANCH  11  12
ENDBRANCH   9  10
ENDBRANCH   8   9
ENDBRANCH   6   7
ENDBRANCH   5   6
ENDBRANCH   3   5
ENDBRANCH   1   3
TORSDOF 15
ENDMDL
MODEL 16
REMARK VINA RESULT:      -5.0      7.989     12.455
REMARK  15 active torsions:
REMARK  status: ('A' for Active; 'I' for Inactive)
REMARK    1  A    between atoms: O_1  and  C_23 
REMARK    2  A    between atoms: C_3  and  C_7 
REMARK    3  A    between atoms: C_3  and  C_8 
REMARK    4  A    between atoms: C_4  and  C_10 
REMARK    5  A    between atoms: C_4  and  C_11 
REMARK    6  A    between atoms: C_5  and  C_12 
REMARK    7  A    between atoms: C_5  and  C_13 
REMARK    8  A    between atoms: C_6  and  C_15 
REMARK    9  A    between atoms: C_6  and  C_16 
REMARK   10  A    between atoms: C_7  and  C_23 
REMARK   11  A    between atoms: C_9  and  C_17 
REMARK   12  A    between atoms: C_9  and  C_18 
REMARK   13  A    between atoms: C_14  and  C_19 
REMARK   14  A    between atoms: C_14  and  C_20 
REMARK   15  A    between atoms: C_21  and  C_22 
ROOT
HETATM    1  O   UNL     1     117.224 139.805 -35.111  1.00  0.00    -0.776 OA
HETATM    2  H   UNL     1     117.036 139.088 -34.490  1.00  0.00     0.167 HD
ENDROOT
BRANCH   1   3
HETATM    3  C   UNL     1     117.495 139.558 -36.411  1.00  0.00     0.139 C 
HETATM    4  O   UNL     1     116.772 138.811 -37.055  1.00  0.00    -0.650 OA
BRANCH   3   5
HETATM    5  C   UNL     1     118.683 140.207 -37.062  1.00  0.00     0.113 C 
BRANCH   5   6
HETATM    6  C   UNL     1     118.266 141.465 -37.833  1.00  0.00     0.037 C 
BRANCH   6   7
HETATM    7  C   UNL     1     119.004 142.676 -37.314  1.00  0.00    -0.030 C 
HETATM    8  C   UNL     1     118.685 143.420 -36.234  1.00  0.00    -0.027 C 
BRANCH   8   9
HETATM    9  C   UNL     1     117.519 143.222 -35.289  1.00  0.00     0.053 C 
BRANCH   9  10
HETATM   10  C   UNL     1     116.231 143.055 -36.055  1.00  0.00    -0.027 C 
HETATM   11  C   UNL     1     115.644 143.994 -36.818  1.00  0.00    -0.027 C 
BRANCH  11  12
HETATM   12  C   UNL     1     116.198 145.368 -37.096  1.00  0.00     0.053 C 
BRANCH  12  13
HETATM   13  C   UNL     1     115.701 146.364 -36.078  1.00  0.00    -0.027 C 
HETATM   14  C   UNL     1     116.448 147.048 -35.192  1.00  0.00    -0.027 C 
BRANCH  14  15
HETATM   15  C   UNL     1     117.936 146.920 -35.001  1.00  0.00     0.053 C 
BRANCH  15  16
HETATM   16  C   UNL     1     118.235 146.940 -33.518  1.00  0.00    -0.027 C 
HETATM   17  C   UNL     1     118.757 147.949 -32.792  1.00  0.00    -0.027 C 
BRANCH  17  18
HETATM   18  C   UNL     1     119.154 149.315 -33.287  1.00  0.00     0.053 C 
BRANCH  18  19
HETATM   19  C   UNL     1     118.761 150.379 -32.288  1.00  0.00    -0.027 C 
HETATM   20  C   UNL     1     117.515 150.722 -31.902  1.00  0.00    -0.027 C 
BRANCH  20  21
HETATM   21  C   UNL     1     116.219 150.084 -32.338  1.00  0.00     0.053 C 
BRANCH  21  22
HETATM   22  C   UNL     1     115.543 149.393 -31.178  1.00  0.00    -0.027 C 
HETATM   23  C   UNL     1     114.655 148.380 -31.237  1.00  0.00    -0.031 C 
BRANCH  23  24
HETATM   24  C   UNL     1     114.125 147.724 -32.485  1.00  0.00     0.022 C 
HETATM   25  C   UNL     1     114.337 146.215 -32.485  1.00  0.00     0.009 C 
ENDBRANCH  23  24
ENDBRANCH  21  22
ENDBRANCH  20  21
ENDBRANCH  18  19
ENDBRANCH  17  18
ENDBRANCH  15  16
ENDBRANCH  14  15
ENDBRANCH  12  13
ENDBRANCH  11  12
ENDBRANCH   9  10
ENDBRANCH   8   9
ENDBRANCH   6   7
ENDBRANCH   5   6
ENDBRANCH   3   5
ENDBRANCH   1   3
TORSDOF 15
ENDMDL
MODEL 17
REMARK VINA RESULT:      -5.0      6.974     13.346
REMARK  15 active torsions:
REMARK  status: ('A' for Active; 'I' for Inactive)
REMARK    1  A    between atoms: O_1  and  C_23 
REMARK    2  A    between atoms: C_3  and  C_7 
REMARK    3  A    between atoms: C_3  and  C_8 
REMARK    4  A    between atoms: C_4  and  C_10 
REMARK    5  A    between atoms: C_4  and  C_11 
REMARK    6  A    between atoms: C_5  and  C_12 
REMARK    7  A    between atoms: C_5  and  C_13 
REMARK    8  A    between atoms: C_6  and  C_15 
REMARK    9  A    between atoms: C_6  and  C_16 
REMARK   10  A    between atoms: C_7  and  C_23 
REMARK   11  A    between atoms: C_9  and  C_17 
REMARK   12  A    between atoms: C_9  and  C_18 
REMARK   13  A    between atoms: C_14  and  C_19 
REMARK   14  A    between atoms: C_14  and  C_20 
REMARK   15  A    between atoms: C_21  and  C_22 
ROOT
HETATM    1  O   UNL     1     119.601 150.160 -31.570  1.00  0.00    -0.776 OA
HETATM    2  H   UNL     1     120.556 150.273 -31.667  1.00  0.00     0.167 HD
ENDROOT
BRANCH   1   3
HETATM    3  C   UNL     1     118.758 151.213 -31.631  1.00  0.00     0.139 C 
HETATM    4  O   UNL     1     119.195 152.336 -31.842  1.00  0.00    -0.650 OA
BRANCH   3   5
HETATM    5  C   UNL     1     117.283 151.001 -31.442  1.00  0.00     0.113 C 
BRANCH   5   6
HETATM    6  C   UNL     1     116.756 149.932 -32.408  1.00  0.00     0.037 C 
BRANCH   6   7
HETATM    7  C   UNL     1     116.775 150.443 -33.828  1.00  0.00    -0.030 C 
HETATM    8  C   UNL     1     116.918 149.710 -34.953  1.00  0.00    -0.027 C 
BRANCH   8   9
HETATM    9  C   UNL     1     117.093 148.211 -35.060  1.00  0.00     0.053 C 
BRANCH   9  10
HETATM   10  C   UNL     1     118.418 147.783 -34.481  1.00  0.00    -0.027 C 
HETATM   11  C   UNL     1     118.658 146.624 -33.842  1.00  0.00    -0.027 C 
BRANCH  11  12
HETATM   12  C   UNL     1     117.659 145.515 -33.637  1.00  0.00     0.053 C 
BRANCH  12  13
HETATM   13  C   UNL     1     118.205 144.200 -34.133  1.00  0.00    -0.027 C 
HETATM   14  C   UNL     1     118.431 143.856 -35.415  1.00  0.00    -0.027 C 
BRANCH  14  15
HETATM   15  C   UNL     1     118.136 144.702 -36.625  1.00  0.00     0.053 C 
BRANCH  15  16
HETATM   16  C   UNL     1     116.645 144.952 -36.685  1.00  0.00    -0.027 C 
HETATM   17  C   UNL     1     115.667 144.068 -36.970  1.00  0.00    -0.027 C 
BRANCH  17  18
HETATM   18  C   UNL     1     115.828 142.604 -37.282  1.00  0.00     0.053 C 
BRANCH  18  19
HETATM   19  C   UNL     1     114.590 141.835 -36.881  1.00  0.00    -0.027 C 
HETATM   20  C   UNL     1     113.890 141.946 -35.734  1.00  0.00    -0.027 C 
BRANCH  20  21
HETATM   21  C   UNL     1     114.148 142.908 -34.600  1.00  0.00     0.053 C 
BRANCH  21  22
HETATM   22  C   UNL     1     113.176 144.064 -34.645  1.00  0.00    -0.027 C 
HETATM   23  C   UNL     1     113.260 145.226 -33.968  1.00  0.00    -0.031 C 
BRANCH  23  24
HETATM   24  C   UNL     1     114.339 145.621 -32.994  1.00  0.00     0.022 C 
HETATM   25  C   UNL     1     114.361 147.120 -32.725  1.00  0.00     0.009 C 
ENDBRANCH  23  24
ENDBRANCH  21  22
ENDBRANCH  20  21
ENDBRANCH  18  19
ENDBRANCH  17  18
ENDBRANCH  15  16
ENDBRANCH  14  15
ENDBRANCH  12  13
ENDBRANCH  11  12
ENDBRANCH   9  10
ENDBRANCH   8   9
ENDBRANCH   6   7
ENDBRANCH   5   6
ENDBRANCH   3   5
ENDBRANCH   1   3
TORSDOF 15
ENDMDL
MODEL 18
REMARK VINA RESULT:      -4.9     36.319     38.768
REMARK  15 active torsions:
REMARK  status: ('A' for Active; 'I' for Inactive)
REMARK    1  A    between atoms: O_1  and  C_23 
REMARK    2  A    between atoms: C_3  and  C_7 
REMARK    3  A    between atoms: C_3  and  C_8 
REMARK    4  A    between atoms: C_4  and  C_10 
REMARK    5  A    between atoms: C_4  and  C_11 
REMARK    6  A    between atoms: C_5  and  C_12 
REMARK    7  A    between atoms: C_5  and  C_13 
REMARK    8  A    between atoms: C_6  and  C_15 
REMARK    9  A    between atoms: C_6  and  C_16 
REMARK   10  A    between atoms: C_7  and  C_23 
REMARK   11  A    between atoms: C_9  and  C_17 
REMARK   12  A    between atoms: C_9  and  C_18 
REMARK   13  A    between atoms: C_14  and  C_19 
REMARK   14  A    between atoms: C_14  and  C_20 
REMARK   15  A    between atoms: C_21  and  C_22 
ROOT
HETATM    1  O   UNL     1      95.445 147.437  -4.032  1.00  0.00    -0.776 OA
HETATM    2  H   UNL     1      96.120 147.795  -3.439  1.00  0.00     0.167 HD
ENDROOT
BRANCH   1   3
HETATM    3  C   UNL     1      94.680 146.384  -3.674  1.00  0.00     0.139 C 
HETATM    4  O   UNL     1      94.317 145.576  -4.517  1.00  0.00    -0.650 OA
BRANCH   3   5
HETATM    5  C   UNL     1      94.281 146.206  -2.236  1.00  0.00     0.113 C 
BRANCH   5   6
HETATM    6  C   UNL     1      95.498 145.865  -1.369  1.00  0.00     0.037 C 
BRANCH   6   7
HETATM    7  C   UNL     1      95.218 144.655  -0.511  1.00  0.00    -0.030 C 
HETATM    8  C   UNL     1      95.157 143.368  -0.916  1.00  0.00    -0.027 C 
BRANCH   8   9
HETATM    9  C   UNL     1      95.353 142.834  -2.319  1.00  0.00     0.053 C 
BRANCH   9  10
HETATM   10  C   UNL     1      96.790 142.439  -2.546  1.00  0.00    -0.027 C 
HETATM   11  C   UNL     1      97.234 141.193  -2.790  1.00  0.00    -0.027 C 
BRANCH  11  12
HETATM   12  C   UNL     1      96.366 139.970  -2.939  1.00  0.00     0.053 C 
BRANCH  12  13
HETATM   13  C   UNL     1      96.047 139.710  -4.390  1.00  0.00    -0.027 C 
HETATM   14  C   UNL     1      94.824 139.519  -4.921  1.00  0.00    -0.027 C 
BRANCH  14  15
HETATM   15  C   UNL     1      93.524 139.478  -4.163  1.00  0.00     0.053 C 
BRANCH  15  16
HETATM   16  C   UNL     1      93.293 138.063  -3.682  1.00  0.00    -0.027 C 
HETATM   17  C   UNL     1      92.554 137.099  -4.268  1.00  0.00    -0.027 C 
BRANCH  17  18
HETATM   18  C   UNL     1      91.792 137.198  -5.563  1.00  0.00     0.053 C 
BRANCH  18  19
HETATM   19  C   UNL     1      92.017 135.968  -6.410  1.00  0.00    -0.027 C 
HETATM   20  C   UNL     1      93.032 135.735  -7.266  1.00  0.00    -0.027 C 
BRANCH  20  21
HETATM   21  C   UNL     1      94.216 136.630  -7.539  1.00  0.00     0.053 C 
BRANCH  21  22
HETATM   22  C   UNL     1      95.494 135.827  -7.606  1.00  0.00    -0.027 C 
HETATM   23  C   UNL     1      96.353 135.577  -6.598  1.00  0.00    -0.031 C 
BRANCH  23  24
HETATM   24  C   UNL     1      96.235 136.063  -5.177  1.00  0.00     0.022 C 
HETATM   25  C   UNL     1      95.487 135.081  -4.285  1.00  0.00     0.009 C 
ENDBRANCH  23  24
ENDBRANCH  21  22
ENDBRANCH  20  21
ENDBRANCH  18  19
ENDBRANCH  17  18
ENDBRANCH  15  16
ENDBRANCH  14  15
ENDBRANCH  12  13
ENDBRANCH  11  12
ENDBRANCH   9  10
ENDBRANCH   8   9
ENDBRANCH   6   7
ENDBRANCH   5   6
ENDBRANCH   3   5
ENDBRANCH   1   3
TORSDOF 15
ENDMDL
MODEL 19
REMARK VINA RESULT:      -4.8      2.388      4.886
REMARK  15 active torsions:
REMARK  status: ('A' for Active; 'I' for Inactive)
REMARK    1  A    between atoms: O_1  and  C_23 
REMARK    2  A    between atoms: C_3  and  C_7 
REMARK    3  A    between atoms: C_3  and  C_8 
REMARK    4  A    between atoms: C_4  and  C_10 
REMARK    5  A    between atoms: C_4  and  C_11 
REMARK    6  A    between atoms: C_5  and  C_12 
REMARK    7  A    between atoms: C_5  and  C_13 
REMARK    8  A    between atoms: C_6  and  C_15 
REMARK    9  A    between atoms: C_6  and  C_16 
REMARK   10  A    between atoms: C_7  and  C_23 
REMARK   11  A    between atoms: C_9  and  C_17 
REMARK   12  A    between atoms: C_9  and  C_18 
REMARK   13  A    between atoms: C_14  and  C_19 
REMARK   14  A    between atoms: C_14  and  C_20 
REMARK   15  A    between atoms: C_21  and  C_22 
ROOT
HETATM    1  O   UNL     1     116.626 149.744 -34.786  1.00  0.00    -0.776 OA
HETATM    2  H   UNL     1     116.851 150.541 -34.287  1.00  0.00     0.167 HD
ENDROOT
BRANCH   1   3
HETATM    3  C   UNL     1     116.830 148.512 -34.274  1.00  0.00     0.139 C 
HETATM    4  O   UNL     1     116.060 147.601 -34.544  1.00  0.00    -0.650 OA
BRANCH   3   5
HETATM    5  C   UNL     1     118.008 148.263 -33.375  1.00  0.00     0.113 C 
BRANCH   5   6
HETATM    6  C   UNL     1     119.318 148.657 -34.067  1.00  0.00     0.037 C 
BRANCH   6   7
HETATM    7  C   UNL     1     120.304 149.208 -33.066  1.00  0.00    -0.030 C 
HETATM    8  C   UNL     1     120.265 150.418 -32.469  1.00  0.00    -0.027 C 
BRANCH   8   9
HETATM    9  C   UNL     1     119.231 151.507 -32.659  1.00  0.00     0.053 C 
BRANCH   9  10
HETATM   10  C   UNL     1     119.369 152.570 -31.599  1.00  0.00    -0.027 C 
HETATM   11  C   UNL     1     118.381 153.364 -31.148  1.00  0.00    -0.027 C 
BRANCH  11  12
HETATM   12  C   UNL     1     116.939 153.295 -31.580  1.00  0.00     0.053 C 
BRANCH  12  13
HETATM   13  C   UNL     1     116.326 151.971 -31.197  1.00  0.00    -0.027 C 
HETATM   14  C   UNL     1     115.322 151.774 -30.323  1.00  0.00    -0.027 C 
BRANCH  14  15
HETATM   15  C   UNL     1     114.635 152.836 -29.506  1.00  0.00     0.053 C 
BRANCH  15  16
HETATM   16  C   UNL     1     115.418 153.041 -28.228  1.00  0.00    -0.027 C 
HETATM   17  C   UNL     1     116.159 154.110 -27.872  1.00  0.00    -0.027 C 
BRANCH  17  18
HETATM   18  C   UNL     1     116.369 155.374 -28.663  1.00  0.00     0.053 C 
BRANCH  18  19
HETATM   19  C   UNL     1     115.798 156.564 -27.927  1.00  0.00    -0.027 C 
HETATM   20  C   UNL     1     116.388 157.758 -27.714  1.00  0.00    -0.027 C 
BRANCH  20  21
HETATM   21  C   UNL     1     117.741 158.206 -28.209  1.00  0.00     0.053 C 
BRANCH  21  22
HETATM   22  C   UNL     1     117.697 158.518 -29.687  1.00  0.00    -0.027 C 
HETATM   23  C   UNL     1     118.395 157.914 -30.669  1.00  0.00    -0.031 C 
BRANCH  23  24
HETATM   24  C   UNL     1     119.395 156.800 -30.504  1.00  0.00     0.022 C 
HETATM   25  C   UNL     1     120.809 157.315 -30.270  1.00  0.00     0.009 C 
ENDBRANCH  23  24
ENDBRANCH  21  22
ENDBRANCH  20  21
ENDBRANCH  18  19
ENDBRANCH  17  18
ENDBRANCH  15  16
ENDBRANCH  14  15
ENDBRANCH  12  13
ENDBRANCH  11  12
ENDBRANCH   9  10
ENDBRANCH   8   9
ENDBRANCH   6   7
ENDBRANCH   5   6
ENDBRANCH   3   5
ENDBRANCH   1   3
TORSDOF 15
ENDMDL
MODEL 20
REMARK VINA RESULT:      -4.7      9.764     15.717
REMARK  15 active torsions:
REMARK  status: ('A' for Active; 'I' for Inactive)
REMARK    1  A    between atoms: O_1  and  C_23 
REMARK    2  A    between atoms: C_3  and  C_7 
REMARK    3  A    between atoms: C_3  and  C_8 
REMARK    4  A    between atoms: C_4  and  C_10 
REMARK    5  A    between atoms: C_4  and  C_11 
REMARK    6  A    between atoms: C_5  and  C_12 
REMARK    7  A    between atoms: C_5  and  C_13 
REMARK    8  A    between atoms: C_6  and  C_15 
REMARK    9  A    between atoms: C_6  and  C_16 
REMARK   10  A    between atoms: C_7  and  C_23 
REMARK   11  A    between atoms: C_9  and  C_17 
REMARK   12  A    between atoms: C_9  and  C_18 
REMARK   13  A    between atoms: C_14  and  C_19 
REMARK   14  A    between atoms: C_14  and  C_20 
REMARK   15  A    between atoms: C_21  and  C_22 
ROOT
HETATM    1  O   UNL     1     116.443 150.268 -33.525  1.00  0.00    -0.776 OA
HETATM    2  H   UNL     1     116.678 151.159 -33.819  1.00  0.00     0.167 HD
ENDROOT
BRANCH   1   3
HETATM    3  C   UNL     1     117.122 149.183 -33.955  1.00  0.00     0.139 C 
HETATM    4  O   UNL     1     118.240 148.948 -33.519  1.00  0.00    -0.650 OA
BRANCH   3   5
HETATM    5  C   UNL     1     116.498 148.265 -34.967  1.00  0.00     0.113 C 
BRANCH   5   6
HETATM    6  C   UNL     1     116.286 146.866 -34.378  1.00  0.00     0.037 C 
BRANCH   6   7
HETATM    7  C   UNL     1     115.328 146.918 -33.212  1.00  0.00    -0.030 C 
HETATM    8  C   UNL     1     114.188 146.211 -33.065  1.00  0.00    -0.027 C 
BRANCH   8   9
HETATM    9  C   UNL     1     113.599 145.201 -34.027  1.00  0.00     0.053 C 
BRANCH   9  10
HETATM   10  C   UNL     1     114.647 144.216 -34.480  1.00  0.00    -0.027 C 
HETATM   11  C   UNL     1     114.451 142.902 -34.691  1.00  0.00    -0.027 C 
BRANCH  11  12
HETATM   12  C   UNL     1     113.132 142.185 -34.571  1.00  0.00     0.053 C 
BRANCH  12  13
HETATM   13  C   UNL     1     112.490 142.007 -35.925  1.00  0.00    -0.027 C 
HETATM   14  C   UNL     1     112.302 140.846 -36.578  1.00  0.00    -0.027 C 
BRANCH  14  15
HETATM   15  C   UNL     1     112.741 139.484 -36.110  1.00  0.00     0.053 C 
BRANCH  15  16
HETATM   16  C   UNL     1     113.438 138.783 -37.255  1.00  0.00    -0.027 C 
HETATM   17  C   UNL     1     114.534 139.186 -37.929  1.00  0.00    -0.027 C 
BRANCH  17  18
HETATM   18  C   UNL     1     115.344 140.432 -37.687  1.00  0.00     0.053 C 
BRANCH  18  19
HETATM   19  C   UNL     1     116.216 140.272 -36.463  1.00  0.00    -0.027 C 
HETATM   20  C   UNL     1     117.418 140.837 -36.233  1.00  0.00    -0.027 C 
BRANCH  20  21
HETATM   21  C   UNL     1     118.153 141.809 -37.123  1.00  0.00     0.053 C 
BRANCH  21  22
HETATM   22  C   UNL     1     118.214 143.179 -36.488  1.00  0.00    -0.027 C 
HETATM   23  C   UNL     1     117.363 144.205 -36.679  1.00  0.00    -0.031 C 
BRANCH  23  24
HETATM   24  C   UNL     1     116.163 144.217 -37.590  1.00  0.00     0.022 C 
HETATM   25  C   UNL     1     115.629 145.623 -37.832  1.00  0.00     0.009 C 
ENDBRANCH  23  24
ENDBRANCH  21  22
ENDBRANCH  20  21
ENDBRANCH  18  19
ENDBRANCH  17  18
ENDBRANCH  15  16
ENDBRANCH  14  15
ENDBRANCH  12  13
ENDBRANCH  11  12
ENDBRANCH   9  10
ENDBRANCH   8   9
ENDBRANCH   6   7
ENDBRANCH   5   6
ENDBRANCH   3   5
ENDBRANCH   1   3
TORSDOF 15
ENDMDL
