MODEL 1
REMARK VINA RESULT:      -4.2      0.000      0.000
REMARK  15 active torsions:
REMARK  status: ('A' for Active; 'I' for Inactive)
REMARK    1  A    between atoms: O_1  and  C_23 
REMARK    2  A    between atoms: C_3  and  C_7 
REMARK    3  A    between atoms: C_3  and  C_8 
REMARK    4  A    between atoms: C_4  and  C_10 
REMARK    5  A    between atoms: C_4  and  C_11 
REMARK    6  A    between atoms: C_5  and  C_12 
REMARK    7  A    between atoms: C_5  and  C_13 
REMARK    8  A    between atoms: C_6  and  C_15 
REMARK    9  A    between atoms: C_6  and  C_16 
REMARK   10  A    between atoms: C_7  and  C_23 
REMARK   11  A    between atoms: C_9  and  C_17 
REMARK   12  A    between atoms: C_9  and  C_18 
REMARK   13  A    between atoms: C_14  and  C_19 
REMARK   14  A    between atoms: C_14  and  C_20 
REMARK   15  A    between atoms: C_21  and  C_22 
ROOT
HETATM    1  O   UNL     1     -37.301  -3.367 -20.772  1.00  0.00    -0.776 OA
HETATM    2  H   UNL     1     -38.143  -2.916 -20.923  1.00  0.00     0.167 HD
ENDROOT
BRANCH   1   3
HETATM    3  C   UNL     1     -37.230  -4.498 -20.038  1.00  0.00     0.139 C 
HETATM    4  O   UNL     1     -37.579  -4.490 -18.866  1.00  0.00    -0.650 OA
BRANCH   3   5
HETATM    5  C   UNL     1     -36.726  -5.766 -20.666  1.00  0.00     0.113 C 
BRANCH   5   6
HETATM    6  C   UNL     1     -36.737  -6.919 -19.657  1.00  0.00     0.037 C 
BRANCH   6   7
HETATM    7  C   UNL     1     -35.330  -7.377 -19.357  1.00  0.00    -0.030 C 
HETATM    8  C   UNL     1     -34.584  -8.238 -20.082  1.00  0.00    -0.027 C 
BRANCH   8   9
HETATM    9  C   UNL     1     -34.977  -8.947 -21.361  1.00  0.00     0.053 C 
BRANCH   9  10
HETATM   10  C   UNL     1     -35.056 -10.437 -21.146  1.00  0.00    -0.027 C 
HETATM   11  C   UNL     1     -36.136 -11.112 -20.713  1.00  0.00    -0.027 C 
BRANCH  11  12
HETATM   12  C   UNL     1     -37.484 -10.508 -20.419  1.00  0.00     0.053 C 
BRANCH  12  13
HETATM   13  C   UNL     1     -38.141 -11.202 -19.251  1.00  0.00    -0.027 C 
HETATM   14  C   UNL     1     -38.035 -10.864 -17.953  1.00  0.00    -0.027 C 
BRANCH  14  15
HETATM   15  C   UNL     1     -37.195  -9.746 -17.393  1.00  0.00     0.053 C 
BRANCH  15  16
HETATM   16  C   UNL     1     -35.799 -10.272 -17.146  1.00  0.00    -0.027 C 
HETATM   17  C   UNL     1     -34.924  -9.886 -16.196  1.00  0.00    -0.027 C 
BRANCH  17  18
HETATM   18  C   UNL     1     -35.139  -8.843 -15.131  1.00  0.00     0.053 C 
BRANCH  18  19
HETATM   19  C   UNL     1     -34.708  -7.481 -15.624  1.00  0.00    -0.027 C 
HETATM   20  C   UNL     1     -35.498  -6.446 -15.974  1.00  0.00    -0.027 C 
BRANCH  20  21
HETATM   21  C   UNL     1     -37.004  -6.386 -15.902  1.00  0.00     0.053 C 
BRANCH  21  22
HETATM   22  C   UNL     1     -37.454  -5.374 -14.874  1.00  0.00    -0.027 C 
HETATM   23  C   UNL     1     -37.613  -5.571 -13.551  1.00  0.00    -0.031 C 
BRANCH  23  24
HETATM   24  C   UNL     1     -37.393  -6.860 -12.803  1.00  0.00     0.022 C 
HETATM   25  C   UNL     1     -36.110  -6.847 -11.982  1.00  0.00     0.009 C 
ENDBRANCH  23  24
ENDBRANCH  21  22
ENDBRANCH  20  21
ENDBRANCH  18  19
ENDBRANCH  17  18
ENDBRANCH  15  16
ENDBRANCH  14  15
ENDBRANCH  12  13
ENDBRANCH  11  12
ENDBRANCH   9  10
ENDBRANCH   8   9
ENDBRANCH   6   7
ENDBRANCH   5   6
ENDBRANCH   3   5
ENDBRANCH   1   3
TORSDOF 15
ENDMDL
MODEL 2
REMARK VINA RESULT:      -4.0      3.338      8.020
REMARK  15 active torsions:
REMARK  status: ('A' for Active; 'I' for Inactive)
REMARK    1  A    between atoms: O_1  and  C_23 
REMARK    2  A    between atoms: C_3  and  C_7 
REMARK    3  A    between atoms: C_3  and  C_8 
REMARK    4  A    between atoms: C_4  and  C_10 
REMARK    5  A    between atoms: C_4  and  C_11 
REMARK    6  A    between atoms: C_5  and  C_12 
REMARK    7  A    between atoms: C_5  and  C_13 
REMARK    8  A    between atoms: C_6  and  C_15 
REMARK    9  A    between atoms: C_6  and  C_16 
REMARK   10  A    between atoms: C_7  and  C_23 
REMARK   11  A    between atoms: C_9  and  C_17 
REMARK   12  A    between atoms: C_9  and  C_18 
REMARK   13  A    between atoms: C_14  and  C_19 
REMARK   14  A    between atoms: C_14  and  C_20 
REMARK   15  A    between atoms: C_21  and  C_22 
ROOT
HETATM    1  O   UNL     1     -37.531 -11.774 -14.268  1.00  0.00    -0.776 OA
HETATM    2  H   UNL     1     -37.804 -12.390 -14.961  1.00  0.00     0.167 HD
ENDROOT
BRANCH   1   3
HETATM    3  C   UNL     1     -36.664 -10.770 -14.521  1.00  0.00     0.139 C 
HETATM    4  O   UNL     1     -36.044 -10.747 -15.574  1.00  0.00    -0.650 OA
BRANCH   3   5
HETATM    5  C   UNL     1     -36.468  -9.680 -13.505  1.00  0.00     0.113 C 
BRANCH   5   6
HETATM    6  C   UNL     1     -34.993  -9.563 -13.107  1.00  0.00     0.037 C 
BRANCH   6   7
HETATM    7  C   UNL     1     -34.668  -8.152 -12.677  1.00  0.00    -0.030 C 
HETATM    8  C   UNL     1     -35.006  -7.560 -11.512  1.00  0.00    -0.027 C 
BRANCH   8   9
HETATM    9  C   UNL     1     -35.786  -8.164 -10.363  1.00  0.00     0.053 C 
BRANCH   9  10
HETATM   10  C   UNL     1     -35.935  -7.173  -9.236  1.00  0.00    -0.027 C 
HETATM   11  C   UNL     1     -36.940  -6.290  -9.094  1.00  0.00    -0.027 C 
BRANCH  11  12
HETATM   12  C   UNL     1     -38.132  -6.169 -10.006  1.00  0.00     0.053 C 
BRANCH  12  13
HETATM   13  C   UNL     1     -38.263  -4.763 -10.537  1.00  0.00    -0.027 C 
HETATM   14  C   UNL     1     -37.777  -4.297 -11.703  1.00  0.00    -0.027 C 
BRANCH  14  15
HETATM   15  C   UNL     1     -36.958  -5.076 -12.698  1.00  0.00     0.053 C 
BRANCH  15  16
HETATM   16  C   UNL     1     -37.899  -5.853 -13.591  1.00  0.00    -0.027 C 
HETATM   17  C   UNL     1     -37.717  -6.204 -14.880  1.00  0.00    -0.027 C 
BRANCH  17  18
HETATM   18  C   UNL     1     -36.514  -5.918 -15.739  1.00  0.00     0.053 C 
BRANCH  18  19
HETATM   19  C   UNL     1     -35.726  -7.183 -15.991  1.00  0.00    -0.027 C 
HETATM   20  C   UNL     1     -35.403  -7.725 -17.183  1.00  0.00    -0.027 C 
BRANCH  20  21
HETATM   21  C   UNL     1     -35.706  -7.164 -18.550  1.00  0.00     0.053 C 
BRANCH  21  22
HETATM   22  C   UNL     1     -37.180  -7.279 -18.864  1.00  0.00    -0.027 C 
HETATM   23  C   UNL     1     -38.033  -6.276 -19.148  1.00  0.00    -0.031 C 
BRANCH  23  24
HETATM   24  C   UNL     1     -37.706  -4.806 -19.197  1.00  0.00     0.022 C 
HETATM   25  C   UNL     1     -37.380  -4.328 -20.606  1.00  0.00     0.009 C 
ENDBRANCH  23  24
ENDBRANCH  21  22
ENDBRANCH  20  21
ENDBRANCH  18  19
ENDBRANCH  17  18
ENDBRANCH  15  16
ENDBRANCH  14  15
ENDBRANCH  12  13
ENDBRANCH  11  12
ENDBRANCH   9  10
ENDBRANCH   8   9
ENDBRANCH   6   7
ENDBRANCH   5   6
ENDBRANCH   3   5
ENDBRANCH   1   3
TORSDOF 15
ENDMDL
MODEL 3
REMARK VINA RESULT:      -4.0      2.859      5.133
REMARK  15 active torsions:
REMARK  status: ('A' for Active; 'I' for Inactive)
REMARK    1  A    between atoms: O_1  and  C_23 
REMARK    2  A    between atoms: C_3  and  C_7 
REMARK    3  A    between atoms: C_3  and  C_8 
REMARK    4  A    between atoms: C_4  and  C_10 
REMARK    5  A    between atoms: C_4  and  C_11 
REMARK    6  A    between atoms: C_5  and  C_12 
REMARK    7  A    between atoms: C_5  and  C_13 
REMARK    8  A    between atoms: C_6  and  C_15 
REMARK    9  A    between atoms: C_6  and  C_16 
REMARK   10  A    between atoms: C_7  and  C_23 
REMARK   11  A    between atoms: C_9  and  C_17 
REMARK   12  A    between atoms: C_9  and  C_18 
REMARK   13  A    between atoms: C_14  and  C_19 
REMARK   14  A    between atoms: C_14  and  C_20 
REMARK   15  A    between atoms: C_21  and  C_22 
ROOT
HETATM    1  O   UNL     1     -35.213 -11.256 -17.647  1.00  0.00    -0.776 OA
HETATM    2  H   UNL     1     -34.681 -11.980 -17.287  1.00  0.00     0.167 HD
ENDROOT
BRANCH   1   3
HETATM    3  C   UNL     1     -34.670 -10.317 -18.452  1.00  0.00     0.139 C 
HETATM    4  O   UNL     1     -33.455 -10.215 -18.541  1.00  0.00    -0.650 OA
BRANCH   3   5
HETATM    5  C   UNL     1     -35.564  -9.403 -19.239  1.00  0.00     0.113 C 
BRANCH   5   6
HETATM    6  C   UNL     1     -34.952  -9.083 -20.608  1.00  0.00     0.037 C 
BRANCH   6   7
HETATM    7  C   UNL     1     -34.493  -7.646 -20.663  1.00  0.00    -0.030 C 
HETATM    8  C   UNL     1     -35.218  -6.576 -21.053  1.00  0.00    -0.027 C 
BRANCH   8   9
HETATM    9  C   UNL     1     -36.657  -6.560 -21.525  1.00  0.00     0.053 C 
BRANCH   9  10
HETATM   10  C   UNL     1     -37.384  -5.353 -20.989  1.00  0.00    -0.027 C 
HETATM   11  C   UNL     1     -38.024  -5.282 -19.808  1.00  0.00    -0.027 C 
BRANCH  11  12
HETATM   12  C   UNL     1     -38.080  -6.380 -18.777  1.00  0.00     0.053 C 
BRANCH  12  13
HETATM   13  C   UNL     1     -36.918  -6.280 -17.821  1.00  0.00    -0.027 C 
HETATM   14  C   UNL     1     -36.969  -5.893 -16.532  1.00  0.00    -0.027 C 
BRANCH  14  15
HETATM   15  C   UNL     1     -38.197  -5.429 -15.794  1.00  0.00     0.053 C 
BRANCH  15  16
HETATM   16  C   UNL     1     -37.758  -4.634 -14.584  1.00  0.00    -0.027 C 
HETATM   17  C   UNL     1     -37.477  -5.093 -13.348  1.00  0.00    -0.027 C 
BRANCH  17  18
HETATM   18  C   UNL     1     -37.514  -6.524 -12.879  1.00  0.00     0.053 C 
BRANCH  18  19
HETATM   19  C   UNL     1     -36.131  -7.130 -12.904  1.00  0.00    -0.027 C 
HETATM   20  C   UNL     1     -35.271  -7.257 -11.873  1.00  0.00    -0.027 C 
BRANCH  20  21
HETATM   21  C   UNL     1     -35.512  -6.871 -10.434  1.00  0.00     0.053 C 
BRANCH  21  22
HETATM   22  C   UNL     1     -36.442  -7.855  -9.763  1.00  0.00    -0.027 C 
HETATM   23  C   UNL     1     -37.524  -7.571  -9.011  1.00  0.00    -0.031 C 
BRANCH  23  24
HETATM   24  C   UNL     1     -38.036  -6.199  -8.658  1.00  0.00     0.022 C 
HETATM   25  C   UNL     1     -37.351  -5.620  -7.427  1.00  0.00     0.009 C 
ENDBRANCH  23  24
ENDBRANCH  21  22
ENDBRANCH  20  21
ENDBRANCH  18  19
ENDBRANCH  17  18
ENDBRANCH  15  16
ENDBRANCH  14  15
ENDBRANCH  12  13
ENDBRANCH  11  12
ENDBRANCH   9  10
ENDBRANCH   8   9
ENDBRANCH   6   7
ENDBRANCH   5   6
ENDBRANCH   3   5
ENDBRANCH   1   3
TORSDOF 15
ENDMDL
MODEL 4
REMARK VINA RESULT:      -4.0      4.096      6.919
REMARK  15 active torsions:
REMARK  status: ('A' for Active; 'I' for Inactive)
REMARK    1  A    between atoms: O_1  and  C_23 
REMARK    2  A    between atoms: C_3  and  C_7 
REMARK    3  A    between atoms: C_3  and  C_8 
REMARK    4  A    between atoms: C_4  and  C_10 
REMARK    5  A    between atoms: C_4  and  C_11 
REMARK    6  A    between atoms: C_5  and  C_12 
REMARK    7  A    between atoms: C_5  and  C_13 
REMARK    8  A    between atoms: C_6  and  C_15 
REMARK    9  A    between atoms: C_6  and  C_16 
REMARK   10  A    between atoms: C_7  and  C_23 
REMARK   11  A    between atoms: C_9  and  C_17 
REMARK   12  A    between atoms: C_9  and  C_18 
REMARK   13  A    between atoms: C_14  and  C_19 
REMARK   14  A    between atoms: C_14  and  C_20 
REMARK   15  A    between atoms: C_21  and  C_22 
ROOT
HETATM    1  O   UNL     1     -42.055  -9.772 -12.106  1.00  0.00    -0.776 OA
HETATM    2  H   UNL     1     -42.381  -8.897 -12.357  1.00  0.00     0.167 HD
ENDROOT
BRANCH   1   3
HETATM    3  C   UNL     1     -40.760  -9.973 -11.782  1.00  0.00     0.139 C 
HETATM    4  O   UNL     1     -40.401 -11.053 -11.334  1.00  0.00    -0.650 OA
BRANCH   3   5
HETATM    5  C   UNL     1     -39.761  -8.869 -11.978  1.00  0.00     0.113 C 
BRANCH   5   6
HETATM    6  C   UNL     1     -39.200  -8.885 -13.405  1.00  0.00     0.037 C 
BRANCH   6   7
HETATM    7  C   UNL     1     -40.084  -8.086 -14.333  1.00  0.00    -0.030 C 
HETATM    8  C   UNL     1     -39.816  -7.739 -15.610  1.00  0.00    -0.027 C 
BRANCH   8   9
HETATM    9  C   UNL     1     -38.574  -8.063 -16.412  1.00  0.00     0.053 C 
BRANCH   9  10
HETATM   10  C   UNL     1     -38.553  -7.288 -17.705  1.00  0.00    -0.027 C 
HETATM   11  C   UNL     1     -37.895  -6.134 -17.918  1.00  0.00    -0.027 C 
BRANCH  11  12
HETATM   12  C   UNL     1     -37.010  -5.435 -16.919  1.00  0.00     0.053 C 
BRANCH  12  13
HETATM   13  C   UNL     1     -37.826  -4.573 -15.989  1.00  0.00    -0.027 C 
HETATM   14  C   UNL     1     -37.895  -4.680 -14.648  1.00  0.00    -0.027 C 
BRANCH  14  15
HETATM   15  C   UNL     1     -37.206  -5.720 -13.805  1.00  0.00     0.053 C 
BRANCH  15  16
HETATM   16  C   UNL     1     -37.785  -5.668 -12.409  1.00  0.00    -0.027 C 
HETATM   17  C   UNL     1     -37.153  -5.901 -11.241  1.00  0.00    -0.027 C 
BRANCH  17  18
HETATM   18  C   UNL     1     -35.702  -6.253 -11.046  1.00  0.00     0.053 C 
BRANCH  18  19
HETATM   19  C   UNL     1     -35.557  -7.692 -10.608  1.00  0.00    -0.027 C 
HETATM   20  C   UNL     1     -35.548  -8.791 -11.389  1.00  0.00    -0.027 C 
BRANCH  20  21
HETATM   21  C   UNL     1     -35.628  -8.838 -12.895  1.00  0.00     0.053 C 
BRANCH  21  22
HETATM   22  C   UNL     1     -34.429  -8.160 -13.517  1.00  0.00    -0.027 C 
HETATM   23  C   UNL     1     -34.197  -7.959 -14.829  1.00  0.00    -0.031 C 
BRANCH  23  24
HETATM   24  C   UNL     1     -35.081  -8.386 -15.973  1.00  0.00     0.022 C 
HETATM   25  C   UNL     1     -34.563  -7.903 -17.321  1.00  0.00     0.009 C 
ENDBRANCH  23  24
ENDBRANCH  21  22
ENDBRANCH  20  21
ENDBRANCH  18  19
ENDBRANCH  17  18
ENDBRANCH  15  16
ENDBRANCH  14  15
ENDBRANCH  12  13
ENDBRANCH  11  12
ENDBRANCH   9  10
ENDBRANCH   8   9
ENDBRANCH   6   7
ENDBRANCH   5   6
ENDBRANCH   3   5
ENDBRANCH   1   3
TORSDOF 15
ENDMDL
MODEL 5
REMARK VINA RESULT:      -4.0      3.711      6.113
REMARK  15 active torsions:
REMARK  status: ('A' for Active; 'I' for Inactive)
REMARK    1  A    between atoms: O_1  and  C_23 
REMARK    2  A    between atoms: C_3  and  C_7 
REMARK    3  A    between atoms: C_3  and  C_8 
REMARK    4  A    between atoms: C_4  and  C_10 
REMARK    5  A    between atoms: C_4  and  C_11 
REMARK    6  A    between atoms: C_5  and  C_12 
REMARK    7  A    between atoms: C_5  and  C_13 
REMARK    8  A    between atoms: C_6  and  C_15 
REMARK    9  A    between atoms: C_6  and  C_16 
REMARK   10  A    between atoms: C_7  and  C_23 
REMARK   11  A    between atoms: C_9  and  C_17 
REMARK   12  A    between atoms: C_9  and  C_18 
REMARK   13  A    between atoms: C_14  and  C_19 
REMARK   14  A    between atoms: C_14  and  C_20 
REMARK   15  A    between atoms: C_21  and  C_22 
ROOT
HETATM    1  O   UNL     1     -33.453 -11.794 -14.876  1.00  0.00    -0.776 OA
HETATM    2  H   UNL     1     -33.985 -12.540 -14.565  1.00  0.00     0.167 HD
ENDROOT
BRANCH   1   3
HETATM    3  C   UNL     1     -33.907 -10.525 -14.799  1.00  0.00     0.139 C 
HETATM    4  O   UNL     1     -33.587  -9.816 -13.855  1.00  0.00    -0.650 OA
BRANCH   3   5
HETATM    5  C   UNL     1     -34.802  -9.986 -15.878  1.00  0.00     0.113 C 
BRANCH   5   6
HETATM    6  C   UNL     1     -34.662  -8.464 -15.996  1.00  0.00     0.037 C 
BRANCH   6   7
HETATM    7  C   UNL     1     -34.733  -8.033 -17.442  1.00  0.00    -0.030 C 
HETATM    8  C   UNL     1     -35.792  -7.484 -18.074  1.00  0.00    -0.027 C 
BRANCH   8   9
HETATM    9  C   UNL     1     -37.153  -7.172 -17.491  1.00  0.00     0.053 C 
BRANCH   9  10
HETATM   10  C   UNL     1     -37.529  -5.734 -17.747  1.00  0.00    -0.027 C 
HETATM   11  C   UNL     1     -37.570  -4.757 -16.823  1.00  0.00    -0.027 C 
BRANCH  11  12
HETATM   12  C   UNL     1     -37.190  -4.909 -15.373  1.00  0.00     0.053 C 
BRANCH  12  13
HETATM   13  C   UNL     1     -38.313  -5.537 -14.586  1.00  0.00    -0.027 C 
HETATM   14  C   UNL     1     -38.221  -6.597 -13.762  1.00  0.00    -0.027 C 
BRANCH  14  15
HETATM   15  C   UNL     1     -36.980  -7.407 -13.494  1.00  0.00     0.053 C 
BRANCH  15  16
HETATM   16  C   UNL     1     -37.320  -8.873 -13.650  1.00  0.00    -0.027 C 
HETATM   17  C   UNL     1     -37.491  -9.792 -12.678  1.00  0.00    -0.027 C 
BRANCH  17  18
HETATM   18  C   UNL     1     -37.402  -9.570 -11.191  1.00  0.00     0.053 C 
BRANCH  18  19
HETATM   19  C   UNL     1     -38.762  -9.712 -10.549  1.00  0.00    -0.027 C 
HETATM   20  C   UNL     1     -39.581  -8.724 -10.134  1.00  0.00    -0.027 C 
BRANCH  20  21
HETATM   21  C   UNL     1     -39.353  -7.238 -10.265  1.00  0.00     0.053 C 
BRANCH  21  22
HETATM   22  C   UNL     1     -38.460  -6.731  -9.157  1.00  0.00    -0.027 C 
HETATM   23  C   UNL     1     -37.381  -5.934  -9.281  1.00  0.00    -0.031 C 
BRANCH  23  24
HETATM   24  C   UNL     1     -36.813  -5.385 -10.563  1.00  0.00     0.022 C 
HETATM   25  C   UNL     1     -37.595  -4.184 -11.081  1.00  0.00     0.009 C 
ENDBRANCH  23  24
ENDBRANCH  21  22
ENDBRANCH  20  21
ENDBRANCH  18  19
ENDBRANCH  17  18
ENDBRANCH  15  16
ENDBRANCH  14  15
ENDBRANCH  12  13
ENDBRANCH  11  12
ENDBRANCH   9  10
ENDBRANCH   8   9
ENDBRANCH   6   7
ENDBRANCH   5   6
ENDBRANCH   3   5
ENDBRANCH   1   3
TORSDOF 15
ENDMDL
MODEL 6
REMARK VINA RESULT:      -3.9      2.906      4.369
REMARK  15 active torsions:
REMARK  status: ('A' for Active; 'I' for Inactive)
REMARK    1  A    between atoms: O_1  and  C_23 
REMARK    2  A    between atoms: C_3  and  C_7 
REMARK    3  A    between atoms: C_3  and  C_8 
REMARK    4  A    between atoms: C_4  and  C_10 
REMARK    5  A    between atoms: C_4  and  C_11 
REMARK    6  A    between atoms: C_5  and  C_12 
REMARK    7  A    between atoms: C_5  and  C_13 
REMARK    8  A    between atoms: C_6  and  C_15 
REMARK    9  A    between atoms: C_6  and  C_16 
REMARK   10  A    between atoms: C_7  and  C_23 
REMARK   11  A    between atoms: C_9  and  C_17 
REMARK   12  A    between atoms: C_9  and  C_18 
REMARK   13  A    between atoms: C_14  and  C_19 
REMARK   14  A    between atoms: C_14  and  C_20 
REMARK   15  A    between atoms: C_21  and  C_22 
ROOT
HETATM    1  O   UNL     1     -35.319 -11.972 -20.902  1.00  0.00    -0.776 OA
HETATM    2  H   UNL     1     -36.259 -11.956 -21.128  1.00  0.00     0.167 HD
ENDROOT
BRANCH   1   3
HETATM    3  C   UNL     1     -34.534 -10.887 -21.072  1.00  0.00     0.139 C 
HETATM    4  O   UNL     1     -33.785 -10.817 -22.035  1.00  0.00    -0.650 OA
BRANCH   3   5
HETATM    5  C   UNL     1     -34.589  -9.764 -20.075  1.00  0.00     0.113 C 
BRANCH   5   6
HETATM    6  C   UNL     1     -35.823  -8.885 -20.307  1.00  0.00     0.037 C 
BRANCH   6   7
HETATM    7  C   UNL     1     -35.626  -7.998 -21.513  1.00  0.00    -0.030 C 
HETATM    8  C   UNL     1     -35.872  -6.673 -21.595  1.00  0.00    -0.027 C 
BRANCH   8   9
HETATM    9  C   UNL     1     -36.401  -5.765 -20.507  1.00  0.00     0.053 C 
BRANCH   9  10
HETATM   10  C   UNL     1     -37.907  -5.700 -20.547  1.00  0.00    -0.027 C 
HETATM   11  C   UNL     1     -38.742  -6.299 -19.679  1.00  0.00    -0.027 C 
BRANCH  11  12
HETATM   12  C   UNL     1     -38.323  -7.097 -18.472  1.00  0.00     0.053 C 
BRANCH  12  13
HETATM   13  C   UNL     1     -37.820  -6.192 -17.376  1.00  0.00    -0.027 C 
HETATM   14  C   UNL     1     -36.606  -6.232 -16.795  1.00  0.00    -0.027 C 
BRANCH  14  15
HETATM   15  C   UNL     1     -35.515  -7.227 -17.089  1.00  0.00     0.053 C 
BRANCH  15  16
HETATM   16  C   UNL     1     -35.747  -8.459 -16.243  1.00  0.00    -0.027 C 
HETATM   17  C   UNL     1     -35.309  -8.699 -14.990  1.00  0.00    -0.027 C 
BRANCH  17  18
HETATM   18  C   UNL     1     -34.492  -7.779 -14.121  1.00  0.00     0.053 C 
BRANCH  18  19
HETATM   19  C   UNL     1     -34.981  -7.823 -12.692  1.00  0.00    -0.027 C 
HETATM   20  C   UNL     1     -36.129  -7.314 -12.201  1.00  0.00    -0.027 C 
BRANCH  20  21
HETATM   21  C   UNL     1     -37.225  -6.626 -12.978  1.00  0.00     0.053 C 
BRANCH  21  22
HETATM   22  C   UNL     1     -37.203  -5.135 -12.734  1.00  0.00    -0.027 C 
HETATM   23  C   UNL     1     -37.688  -4.477 -11.663  1.00  0.00    -0.031 C 
BRANCH  23  24
HETATM   24  C   UNL     1     -38.381  -5.088 -10.473  1.00  0.00     0.022 C 
HETATM   25  C   UNL     1     -37.572  -4.944  -9.190  1.00  0.00     0.009 C 
ENDBRANCH  23  24
ENDBRANCH  21  22
ENDBRANCH  20  21
ENDBRANCH  18  19
ENDBRANCH  17  18
ENDBRANCH  15  16
ENDBRANCH  14  15
ENDBRANCH  12  13
ENDBRANCH  11  12
ENDBRANCH   9  10
ENDBRANCH   8   9
ENDBRANCH   6   7
ENDBRANCH   5   6
ENDBRANCH   3   5
ENDBRANCH   1   3
TORSDOF 15
ENDMDL
MODEL 7
REMARK VINA RESULT:      -3.9      3.849      6.839
REMARK  15 active torsions:
REMARK  status: ('A' for Active; 'I' for Inactive)
REMARK    1  A    between atoms: O_1  and  C_23 
REMARK    2  A    between atoms: C_3  and  C_7 
REMARK    3  A    between atoms: C_3  and  C_8 
REMARK    4  A    between atoms: C_4  and  C_10 
REMARK    5  A    between atoms: C_4  and  C_11 
REMARK    6  A    between atoms: C_5  and  C_12 
REMARK    7  A    between atoms: C_5  and  C_13 
REMARK    8  A    between atoms: C_6  and  C_15 
REMARK    9  A    between atoms: C_6  and  C_16 
REMARK   10  A    between atoms: C_7  and  C_23 
REMARK   11  A    between atoms: C_9  and  C_17 
REMARK   12  A    between atoms: C_9  and  C_18 
REMARK   13  A    between atoms: C_14  and  C_19 
REMARK   14  A    between atoms: C_14  and  C_20 
REMARK   15  A    between atoms: C_21  and  C_22 
ROOT
HETATM    1  O   UNL     1     -35.560  -7.509 -16.270  1.00  0.00    -0.776 OA
HETATM    2  H   UNL     1     -35.436  -6.750 -15.683  1.00  0.00     0.167 HD
ENDROOT
BRANCH   1   3
HETATM    3  C   UNL     1     -35.080  -7.507 -17.532  1.00  0.00     0.139 C 
HETATM    4  O   UNL     1     -33.932  -7.866 -17.751  1.00  0.00    -0.650 OA
BRANCH   3   5
HETATM    5  C   UNL     1     -35.963  -7.068 -18.665  1.00  0.00     0.113 C 
BRANCH   5   6
HETATM    6  C   UNL     1     -37.202  -6.333 -18.141  1.00  0.00     0.037 C 
BRANCH   6   7
HETATM    7  C   UNL     1     -38.464  -7.004 -18.626  1.00  0.00    -0.030 C 
HETATM    8  C   UNL     1     -39.130  -8.013 -18.025  1.00  0.00    -0.027 C 
BRANCH   8   9
HETATM    9  C   UNL     1     -38.772  -8.711 -16.730  1.00  0.00     0.053 C 
BRANCH   9  10
HETATM   10  C   UNL     1     -39.811  -8.442 -15.671  1.00  0.00    -0.027 C 
HETATM   11  C   UNL     1     -39.767  -7.454 -14.760  1.00  0.00    -0.027 C 
BRANCH  11  12
HETATM   12  C   UNL     1     -38.697  -6.397 -14.668  1.00  0.00     0.053 C 
BRANCH  12  13
HETATM   13  C   UNL     1     -37.631  -6.795 -13.678  1.00  0.00    -0.027 C 
HETATM   14  C   UNL     1     -37.193  -6.067 -12.634  1.00  0.00    -0.027 C 
BRANCH  14  15
HETATM   15  C   UNL     1     -37.646  -4.678 -12.269  1.00  0.00     0.053 C 
BRANCH  15  16
HETATM   16  C   UNL     1     -37.225  -4.394 -10.844  1.00  0.00    -0.027 C 
HETATM   17  C   UNL     1     -37.560  -5.075  -9.729  1.00  0.00    -0.027 C 
BRANCH  17  18
HETATM   18  C   UNL     1     -38.427  -6.303  -9.640  1.00  0.00     0.053 C 
BRANCH  18  19
HETATM   19  C   UNL     1     -37.579  -7.544  -9.488  1.00  0.00    -0.027 C 
HETATM   20  C   UNL     1     -36.845  -7.911  -8.417  1.00  0.00    -0.027 C 
BRANCH  20  21
HETATM   21  C   UNL     1     -36.742  -7.192  -7.095  1.00  0.00     0.053 C 
BRANCH  21  22
HETATM   22  C   UNL     1     -38.063  -7.222  -6.362  1.00  0.00    -0.027 C 
HETATM   23  C   UNL     1     -38.533  -6.309  -5.491  1.00  0.00    -0.031 C 
BRANCH  23  24
HETATM   24  C   UNL     1     -37.830  -5.055  -5.039  1.00  0.00     0.022 C 
HETATM   25  C   UNL     1     -37.595  -4.075  -6.180  1.00  0.00     0.009 C 
ENDBRANCH  23  24
ENDBRANCH  21  22
ENDBRANCH  20  21
ENDBRANCH  18  19
ENDBRANCH  17  18
ENDBRANCH  15  16
ENDBRANCH  14  15
ENDBRANCH  12  13
ENDBRANCH  11  12
ENDBRANCH   9  10
ENDBRANCH   8   9
ENDBRANCH   6   7
ENDBRANCH   5   6
ENDBRANCH   3   5
ENDBRANCH   1   3
TORSDOF 15
ENDMDL
MODEL 8
REMARK VINA RESULT:      -3.9      1.551      2.202
REMARK  15 active torsions:
REMARK  status: ('A' for Active; 'I' for Inactive)
REMARK    1  A    between atoms: O_1  and  C_23 
REMARK    2  A    between atoms: C_3  and  C_7 
REMARK    3  A    between atoms: C_3  and  C_8 
REMARK    4  A    between atoms: C_4  and  C_10 
REMARK    5  A    between atoms: C_4  and  C_11 
REMARK    6  A    between atoms: C_5  and  C_12 
REMARK    7  A    between atoms: C_5  and  C_13 
REMARK    8  A    between atoms: C_6  and  C_15 
REMARK    9  A    between atoms: C_6  and  C_16 
REMARK   10  A    between atoms: C_7  and  C_23 
REMARK   11  A    between atoms: C_9  and  C_17 
REMARK   12  A    between atoms: C_9  and  C_18 
REMARK   13  A    between atoms: C_14  and  C_19 
REMARK   14  A    between atoms: C_14  and  C_20 
REMARK   15  A    between atoms: C_21  and  C_22 
ROOT
HETATM    1  O   UNL     1     -37.244  -3.619 -20.772  1.00  0.00    -0.776 OA
HETATM    2  H   UNL     1     -38.077  -3.169 -20.971  1.00  0.00     0.167 HD
ENDROOT
BRANCH   1   3
HETATM    3  C   UNL     1     -37.204  -4.704 -19.969  1.00  0.00     0.139 C 
HETATM    4  O   UNL     1     -37.589  -4.623 -18.811  1.00  0.00    -0.650 OA
BRANCH   3   5
HETATM    5  C   UNL     1     -36.690  -6.010 -20.505  1.00  0.00     0.113 C 
BRANCH   5   6
HETATM    6  C   UNL     1     -36.658  -7.078 -19.406  1.00  0.00     0.037 C 
BRANCH   6   7
HETATM    7  C   UNL     1     -35.262  -7.231 -18.853  1.00  0.00    -0.030 C 
HETATM    8  C   UNL     1     -34.387  -8.224 -19.121  1.00  0.00    -0.027 C 
BRANCH   8   9
HETATM    9  C   UNL     1     -34.595  -9.414 -20.033  1.00  0.00     0.053 C 
BRANCH   9  10
HETATM   10  C   UNL     1     -34.486 -10.706 -19.263  1.00  0.00    -0.027 C 
HETATM   11  C   UNL     1     -35.511 -11.382 -18.714  1.00  0.00    -0.027 C 
BRANCH  11  12
HETATM   12  C   UNL     1     -36.965 -11.000 -18.818  1.00  0.00     0.053 C 
BRANCH  12  13
HETATM   13  C   UNL     1     -37.692 -11.295 -17.529  1.00  0.00    -0.027 C 
HETATM   14  C   UNL     1     -37.978 -10.416 -16.550  1.00  0.00    -0.027 C 
BRANCH  14  15
HETATM   15  C   UNL     1     -37.585  -8.963 -16.520  1.00  0.00     0.053 C 
BRANCH  15  16
HETATM   16  C   UNL     1     -36.368  -8.812 -15.634  1.00  0.00    -0.027 C 
HETATM   17  C   UNL     1     -35.751  -7.673 -15.261  1.00  0.00    -0.027 C 
BRANCH  17  18
HETATM   18  C   UNL     1     -36.143  -6.265 -15.624  1.00  0.00     0.053 C 
BRANCH  18  19
HETATM   19  C   UNL     1     -37.569  -5.985 -15.211  1.00  0.00    -0.027 C 
HETATM   20  C   UNL     1     -38.061  -5.911 -13.957  1.00  0.00    -0.027 C 
BRANCH  20  21
HETATM   21  C   UNL     1     -37.288  -6.038 -12.668  1.00  0.00     0.053 C 
BRANCH  21  22
HETATM   22  C   UNL     1     -37.403  -4.775 -11.846  1.00  0.00    -0.027 C 
HETATM   23  C   UNL     1     -37.815  -4.670 -10.567  1.00  0.00    -0.031 C 
BRANCH  23  24
HETATM   24  C   UNL     1     -38.272  -5.795  -9.676  1.00  0.00     0.022 C 
HETATM   25  C   UNL     1     -37.177  -6.270  -8.729  1.00  0.00     0.009 C 
ENDBRANCH  23  24
ENDBRANCH  21  22
ENDBRANCH  20  21
ENDBRANCH  18  19
ENDBRANCH  17  18
ENDBRANCH  15  16
ENDBRANCH  14  15
ENDBRANCH  12  13
ENDBRANCH  11  12
ENDBRANCH   9  10
ENDBRANCH   8   9
ENDBRANCH   6   7
ENDBRANCH   5   6
ENDBRANCH   3   5
ENDBRANCH   1   3
TORSDOF 15
ENDMDL
MODEL 9
REMARK VINA RESULT:      -3.8      3.879      7.087
REMARK  15 active torsions:
REMARK  status: ('A' for Active; 'I' for Inactive)
REMARK    1  A    between atoms: O_1  and  C_23 
REMARK    2  A    between atoms: C_3  and  C_7 
REMARK    3  A    between atoms: C_3  and  C_8 
REMARK    4  A    between atoms: C_4  and  C_10 
REMARK    5  A    between atoms: C_4  and  C_11 
REMARK    6  A    between atoms: C_5  and  C_12 
REMARK    7  A    between atoms: C_5  and  C_13 
REMARK    8  A    between atoms: C_6  and  C_15 
REMARK    9  A    between atoms: C_6  and  C_16 
REMARK   10  A    between atoms: C_7  and  C_23 
REMARK   11  A    between atoms: C_9  and  C_17 
REMARK   12  A    between atoms: C_9  and  C_18 
REMARK   13  A    between atoms: C_14  and  C_19 
REMARK   14  A    between atoms: C_14  and  C_20 
REMARK   15  A    between atoms: C_21  and  C_22 
ROOT
HETATM    1  O   UNL     1     -34.297 -10.954 -12.026  1.00  0.00    -0.776 OA
HETATM    2  H   UNL     1     -33.969 -10.638 -11.173  1.00  0.00     0.167 HD
ENDROOT
BRANCH   1   3
HETATM    3  C   UNL     1     -35.245 -10.278 -12.709  1.00  0.00     0.139 C 
HETATM    4  O   UNL     1     -36.424 -10.402 -12.407  1.00  0.00    -0.650 OA
BRANCH   3   5
HETATM    5  C   UNL     1     -34.847  -9.372 -13.839  1.00  0.00     0.113 C 
BRANCH   5   6
HETATM    6  C   UNL     1     -35.913  -9.369 -14.941  1.00  0.00     0.037 C 
BRANCH   6   7
HETATM    7  C   UNL     1     -35.284  -9.621 -16.290  1.00  0.00    -0.030 C 
HETATM    8  C   UNL     1     -34.983  -8.700 -17.230  1.00  0.00    -0.027 C 
BRANCH   8   9
HETATM    9  C   UNL     1     -35.202  -7.204 -17.158  1.00  0.00     0.053 C 
BRANCH   9  10
HETATM   10  C   UNL     1     -36.599  -6.844 -17.598  1.00  0.00    -0.027 C 
HETATM   11  C   UNL     1     -37.549  -6.292 -16.823  1.00  0.00    -0.027 C 
BRANCH  11  12
HETATM   12  C   UNL     1     -37.372  -5.878 -15.385  1.00  0.00     0.053 C 
BRANCH  12  13
HETATM   13  C   UNL     1     -38.448  -6.480 -14.516  1.00  0.00    -0.027 C 
HETATM   14  C   UNL     1     -38.330  -6.836 -13.223  1.00  0.00    -0.027 C 
BRANCH  14  15
HETATM   15  C   UNL     1     -37.078  -6.751 -12.391  1.00  0.00     0.053 C 
BRANCH  15  16
HETATM   16  C   UNL     1     -36.905  -5.322 -11.926  1.00  0.00    -0.027 C 
HETATM   17  C   UNL     1     -37.359  -4.759 -10.789  1.00  0.00    -0.027 C 
BRANCH  17  18
HETATM   18  C   UNL     1     -38.139  -5.432  -9.690  1.00  0.00     0.053 C 
BRANCH  18  19
HETATM   19  C   UNL     1     -37.737  -4.887  -8.339  1.00  0.00    -0.027 C 
HETATM   20  C   UNL     1     -37.275  -5.579  -7.278  1.00  0.00    -0.027 C 
BRANCH  20  21
HETATM   21  C   UNL     1     -36.998  -7.061  -7.210  1.00  0.00     0.053 C 
BRANCH  21  22
HETATM   22  C   UNL     1     -35.514  -7.326  -7.102  1.00  0.00    -0.027 C 
HETATM   23  C   UNL     1     -34.699  -7.796  -8.066  1.00  0.00    -0.031 C 
BRANCH  23  24
HETATM   24  C   UNL     1     -35.094  -8.180  -9.468  1.00  0.00     0.022 C 
HETATM   25  C   UNL     1     -34.248  -7.482 -10.525  1.00  0.00     0.009 C 
ENDBRANCH  23  24
ENDBRANCH  21  22
ENDBRANCH  20  21
ENDBRANCH  18  19
ENDBRANCH  17  18
ENDBRANCH  15  16
ENDBRANCH  14  15
ENDBRANCH  12  13
ENDBRANCH  11  12
ENDBRANCH   9  10
ENDBRANCH   8   9
ENDBRANCH   6   7
ENDBRANCH   5   6
ENDBRANCH   3   5
ENDBRANCH   1   3
TORSDOF 15
ENDMDL
MODEL 10
REMARK VINA RESULT:      -3.8     22.802     25.580
REMARK  15 active torsions:
REMARK  status: ('A' for Active; 'I' for Inactive)
REMARK    1  A    between atoms: O_1  and  C_23 
REMARK    2  A    between atoms: C_3  and  C_7 
REMARK    3  A    between atoms: C_3  and  C_8 
REMARK    4  A    between atoms: C_4  and  C_10 
REMARK    5  A    between atoms: C_4  and  C_11 
REMARK    6  A    between atoms: C_5  and  C_12 
REMARK    7  A    between atoms: C_5  and  C_13 
REMARK    8  A    between atoms: C_6  and  C_15 
REMARK    9  A    between atoms: C_6  and  C_16 
REMARK   10  A    between atoms: C_7  and  C_23 
REMARK   11  A    between atoms: C_9  and  C_17 
REMARK   12  A    between atoms: C_9  and  C_18 
REMARK   13  A    between atoms: C_14  and  C_19 
REMARK   14  A    between atoms: C_14  and  C_20 
REMARK   15  A    between atoms: C_21  and  C_22 
ROOT
HETATM    1  O   UNL     1     -25.888  16.965  -8.902  1.00  0.00    -0.776 OA
HETATM    2  H   UNL     1     -26.368  17.011  -9.740  1.00  0.00     0.167 HD
ENDROOT
BRANCH   1   3
HETATM    3  C   UNL     1     -25.595  15.781  -8.322  1.00  0.00     0.139 C 
HETATM    4  O   UNL     1     -25.387  15.724  -7.118  1.00  0.00    -0.650 OA
BRANCH   3   5
HETATM    5  C   UNL     1     -25.528  14.536  -9.160  1.00  0.00     0.113 C 
BRANCH   5   6
HETATM    6  C   UNL     1     -26.654  14.516 -10.200  1.00  0.00     0.037 C 
BRANCH   6   7
HETATM    7  C   UNL     1     -26.567  13.274 -11.054  1.00  0.00    -0.030 C 
HETATM    8  C   UNL     1     -26.747  13.192 -12.390  1.00  0.00    -0.027 C 
BRANCH   8   9
HETATM    9  C   UNL     1     -27.079  14.319 -13.345  1.00  0.00     0.053 C 
BRANCH   9  10
HETATM   10  C   UNL     1     -25.900  14.635 -14.230  1.00  0.00    -0.027 C 
HETATM   11  C   UNL     1     -25.691  14.144 -15.465  1.00  0.00    -0.027 C 
BRANCH  11  12
HETATM   12  C   UNL     1     -26.627  13.231 -16.213  1.00  0.00     0.053 C 
BRANCH  12  13
HETATM   13  C   UNL     1     -26.801  13.690 -17.640  1.00  0.00    -0.027 C 
HETATM   14  C   UNL     1     -27.499  14.761 -18.059  1.00  0.00    -0.027 C 
BRANCH  14  15
HETATM   15  C   UNL     1     -28.293  15.699 -17.189  1.00  0.00     0.053 C 
BRANCH  15  16
HETATM   16  C   UNL     1     -27.606  17.046 -17.180  1.00  0.00    -0.027 C 
HETATM   17  C   UNL     1     -27.401  17.865 -16.129  1.00  0.00    -0.027 C 
BRANCH  17  18
HETATM   18  C   UNL     1     -27.796  17.621 -14.696  1.00  0.00     0.053 C 
BRANCH  18  19
HETATM   19  C   UNL     1     -29.178  18.168 -14.423  1.00  0.00    -0.027 C 
HETATM   20  C   UNL     1     -30.300  17.469 -14.159  1.00  0.00    -0.027 C 
BRANCH  20  21
HETATM   21  C   UNL     1     -30.428  15.972 -14.020  1.00  0.00     0.053 C 
BRANCH  21  22
HETATM   22  C   UNL     1     -31.444  15.425 -14.995  1.00  0.00    -0.027 C 
HETATM   23  C   UNL     1     -31.412  14.235 -15.625  1.00  0.00    -0.031 C 
BRANCH  23  24
HETATM   24  C   UNL     1     -30.336  13.187 -15.507  1.00  0.00     0.022 C 
HETATM   25  C   UNL     1     -30.235  12.313 -16.750  1.00  0.00     0.009 C 
ENDBRANCH  23  24
ENDBRANCH  21  22
ENDBRANCH  20  21
ENDBRANCH  18  19
ENDBRANCH  17  18
ENDBRANCH  15  16
ENDBRANCH  14  15
ENDBRANCH  12  13
ENDBRANCH  11  12
ENDBRANCH   9  10
ENDBRANCH   8   9
ENDBRANCH   6   7
ENDBRANCH   5   6
ENDBRANCH   3   5
ENDBRANCH   1   3
TORSDOF 15
ENDMDL
MODEL 11
REMARK VINA RESULT:      -3.7      4.560      9.512
REMARK  15 active torsions:
REMARK  status: ('A' for Active; 'I' for Inactive)
REMARK    1  A    between atoms: O_1  and  C_23 
REMARK    2  A    between atoms: C_3  and  C_7 
REMARK    3  A    between atoms: C_3  and  C_8 
REMARK    4  A    between atoms: C_4  and  C_10 
REMARK    5  A    between atoms: C_4  and  C_11 
REMARK    6  A    between atoms: C_5  and  C_12 
REMARK    7  A    between atoms: C_5  and  C_13 
REMARK    8  A    between atoms: C_6  and  C_15 
REMARK    9  A    between atoms: C_6  and  C_16 
REMARK   10  A    between atoms: C_7  and  C_23 
REMARK   11  A    between atoms: C_9  and  C_17 
REMARK   12  A    between atoms: C_9  and  C_18 
REMARK   13  A    between atoms: C_14  and  C_19 
REMARK   14  A    between atoms: C_14  and  C_20 
REMARK   15  A    between atoms: C_21  and  C_22 
ROOT
HETATM    1  O   UNL     1     -33.956  -7.121  -6.881  1.00  0.00    -0.776 OA
HETATM    2  H   UNL     1     -33.301  -7.641  -7.365  1.00  0.00     0.167 HD
ENDROOT
BRANCH   1   3
HETATM    3  C   UNL     1     -35.129  -7.660  -6.483  1.00  0.00     0.139 C 
HETATM    4  O   UNL     1     -35.336  -8.856  -6.637  1.00  0.00    -0.650 OA
BRANCH   3   5
HETATM    5  C   UNL     1     -36.174  -6.788  -5.849  1.00  0.00     0.113 C 
BRANCH   5   6
HETATM    6  C   UNL     1     -36.825  -5.869  -6.889  1.00  0.00     0.037 C 
BRANCH   6   7
HETATM    7  C   UNL     1     -37.778  -6.648  -7.765  1.00  0.00    -0.030 C 
HETATM    8  C   UNL     1     -37.765  -6.723  -9.112  1.00  0.00    -0.027 C 
BRANCH   8   9
HETATM    9  C   UNL     1     -36.798  -6.050 -10.064  1.00  0.00     0.053 C 
BRANCH   9  10
HETATM   10  C   UNL     1     -35.682  -6.988 -10.447  1.00  0.00    -0.027 C 
HETATM   11  C   UNL     1     -35.402  -7.408 -11.694  1.00  0.00    -0.027 C 
BRANCH  11  12
HETATM   12  C   UNL     1     -36.118  -6.972 -12.945  1.00  0.00     0.053 C 
BRANCH  12  13
HETATM   13  C   UNL     1     -35.384  -7.439 -14.177  1.00  0.00    -0.027 C 
HETATM   14  C   UNL     1     -35.531  -6.964 -15.428  1.00  0.00    -0.027 C 
BRANCH  14  15
HETATM   15  C   UNL     1     -36.500  -5.898 -15.863  1.00  0.00     0.053 C 
BRANCH  15  16
HETATM   16  C   UNL     1     -37.601  -6.548 -16.672  1.00  0.00    -0.027 C 
HETATM   17  C   UNL     1     -38.022  -6.223 -17.910  1.00  0.00    -0.027 C 
BRANCH  17  18
HETATM   18  C   UNL     1     -37.479  -5.136 -18.800  1.00  0.00     0.053 C 
BRANCH  18  19
HETATM   19  C   UNL     1     -38.220  -5.104 -20.116  1.00  0.00    -0.027 C 
HETATM   20  C   UNL     1     -37.758  -5.480 -21.327  1.00  0.00    -0.027 C 
BRANCH  20  21
HETATM   21  C   UNL     1     -36.408  -6.074 -21.642  1.00  0.00     0.053 C 
BRANCH  21  22
HETATM   22  C   UNL     1     -36.451  -7.582 -21.562  1.00  0.00    -0.027 C 
HETATM   23  C   UNL     1     -35.933  -8.363 -20.593  1.00  0.00    -0.031 C 
BRANCH  23  24
HETATM   24  C   UNL     1     -35.174  -7.899 -19.378  1.00  0.00     0.022 C 
HETATM   25  C   UNL     1     -34.183  -8.942 -18.876  1.00  0.00     0.009 C 
ENDBRANCH  23  24
ENDBRANCH  21  22
ENDBRANCH  20  21
ENDBRANCH  18  19
ENDBRANCH  17  18
ENDBRANCH  15  16
ENDBRANCH  14  15
ENDBRANCH  12  13
ENDBRANCH  11  12
ENDBRANCH   9  10
ENDBRANCH   8   9
ENDBRANCH   6   7
ENDBRANCH   5   6
ENDBRANCH   3   5
ENDBRANCH   1   3
TORSDOF 15
ENDMDL
MODEL 12
REMARK VINA RESULT:      -3.7     22.508     25.090
REMARK  15 active torsions:
REMARK  status: ('A' for Active; 'I' for Inactive)
REMARK    1  A    between atoms: O_1  and  C_23 
REMARK    2  A    between atoms: C_3  and  C_7 
REMARK    3  A    between atoms: C_3  and  C_8 
REMARK    4  A    between atoms: C_4  and  C_10 
REMARK    5  A    between atoms: C_4  and  C_11 
REMARK    6  A    between atoms: C_5  and  C_12 
REMARK    7  A    between atoms: C_5  and  C_13 
REMARK    8  A    between atoms: C_6  and  C_15 
REMARK    9  A    between atoms: C_6  and  C_16 
REMARK   10  A    between atoms: C_7  and  C_23 
REMARK   11  A    between atoms: C_9  and  C_17 
REMARK   12  A    between atoms: C_9  and  C_18 
REMARK   13  A    between atoms: C_14  and  C_19 
REMARK   14  A    between atoms: C_14  and  C_20 
REMARK   15  A    between atoms: C_21  and  C_22 
ROOT
HETATM    1  O   UNL     1     -33.011  12.273 -16.564  1.00  0.00    -0.776 OA
HETATM    2  H   UNL     1     -33.513  12.911 -17.090  1.00  0.00     0.167 HD
ENDROOT
BRANCH   1   3
HETATM    3  C   UNL     1     -31.787  12.571 -16.077  1.00  0.00     0.139 C 
HETATM    4  O   UNL     1     -31.634  12.752 -14.877  1.00  0.00    -0.650 OA
BRANCH   3   5
HETATM    5  C   UNL     1     -30.617  12.676 -17.012  1.00  0.00     0.113 C 
BRANCH   5   6
HETATM    6  C   UNL     1     -29.340  13.052 -16.251  1.00  0.00     0.037 C 
BRANCH   6   7
HETATM    7  C   UNL     1     -28.297  13.596 -17.198  1.00  0.00    -0.030 C 
HETATM    8  C   UNL     1     -26.966  13.666 -16.986  1.00  0.00    -0.027 C 
BRANCH   8   9
HETATM    9  C   UNL     1     -26.204  13.220 -15.756  1.00  0.00     0.053 C 
BRANCH   9  10
HETATM   10  C   UNL     1     -25.574  14.399 -15.058  1.00  0.00    -0.027 C 
HETATM   11  C   UNL     1     -26.001  14.950 -13.908  1.00  0.00    -0.027 C 
BRANCH  11  12
HETATM   12  C   UNL     1     -27.155  14.453 -13.076  1.00  0.00     0.053 C 
BRANCH  12  13
HETATM   13  C   UNL     1     -26.755  13.241 -12.271  1.00  0.00    -0.027 C 
HETATM   14  C   UNL     1     -26.158  13.239 -11.065  1.00  0.00    -0.027 C 
BRANCH  14  15
HETATM   15  C   UNL     1     -25.721  14.453 -10.289  1.00  0.00     0.053 C 
BRANCH  15  16
HETATM   16  C   UNL     1     -26.478  14.485  -8.980  1.00  0.00    -0.027 C 
HETATM   17  C   UNL     1     -27.631  15.129  -8.704  1.00  0.00    -0.027 C 
BRANCH  17  18
HETATM   18  C   UNL     1     -28.456  15.962  -9.650  1.00  0.00     0.053 C 
BRANCH  18  19
HETATM   19  C   UNL     1     -28.013  17.406  -9.614  1.00  0.00    -0.027 C 
HETATM   20  C   UNL     1     -27.664  18.184 -10.658  1.00  0.00    -0.027 C 
BRANCH  20  21
HETATM   21  C   UNL     1     -27.687  17.810 -12.120  1.00  0.00     0.053 C 
BRANCH  21  22
HETATM   22  C   UNL     1     -28.609  18.721 -12.894  1.00  0.00    -0.027 C 
HETATM   23  C   UNL     1     -28.679  18.864 -14.232  1.00  0.00    -0.031 C 
BRANCH  23  24
HETATM   24  C   UNL     1     -27.832  18.155 -15.256  1.00  0.00     0.022 C 
HETATM   25  C   UNL     1     -28.530  16.938 -15.848  1.00  0.00     0.009 C 
ENDBRANCH  23  24
ENDBRANCH  21  22
ENDBRANCH  20  21
ENDBRANCH  18  19
ENDBRANCH  17  18
ENDBRANCH  15  16
ENDBRANCH  14  15
ENDBRANCH  12  13
ENDBRANCH  11  12
ENDBRANCH   9  10
ENDBRANCH   8   9
ENDBRANCH   6   7
ENDBRANCH   5   6
ENDBRANCH   3   5
ENDBRANCH   1   3
TORSDOF 15
ENDMDL
MODEL 13
REMARK VINA RESULT:      -3.7     23.048     25.710
REMARK  15 active torsions:
REMARK  status: ('A' for Active; 'I' for Inactive)
REMARK    1  A    between atoms: O_1  and  C_23 
REMARK    2  A    between atoms: C_3  and  C_7 
REMARK    3  A    between atoms: C_3  and  C_8 
REMARK    4  A    between atoms: C_4  and  C_10 
REMARK    5  A    between atoms: C_4  and  C_11 
REMARK    6  A    between atoms: C_5  and  C_12 
REMARK    7  A    between atoms: C_5  and  C_13 
REMARK    8  A    between atoms: C_6  and  C_15 
REMARK    9  A    between atoms: C_6  and  C_16 
REMARK   10  A    between atoms: C_7  and  C_23 
REMARK   11  A    between atoms: C_9  and  C_17 
REMARK   12  A    between atoms: C_9  and  C_18 
REMARK   13  A    between atoms: C_14  and  C_19 
REMARK   14  A    between atoms: C_14  and  C_20 
REMARK   15  A    between atoms: C_21  and  C_22 
ROOT
HETATM    1  O   UNL     1     -25.938  17.825 -11.557  1.00  0.00    -0.776 OA
HETATM    2  H   UNL     1     -25.427  18.534 -11.971  1.00  0.00     0.167 HD
ENDROOT
BRANCH   1   3
HETATM    3  C   UNL     1     -25.824  16.543 -11.966  1.00  0.00     0.139 C 
HETATM    4  O   UNL     1     -25.612  15.656 -11.151  1.00  0.00    -0.650 OA
BRANCH   3   5
HETATM    5  C   UNL     1     -25.963  16.210 -13.425  1.00  0.00     0.113 C 
BRANCH   5   6
HETATM    6  C   UNL     1     -25.608  14.742 -13.687  1.00  0.00     0.037 C 
BRANCH   6   7
HETATM    7  C   UNL     1     -25.202  14.542 -15.128  1.00  0.00    -0.030 C 
HETATM    8  C   UNL     1     -26.021  14.339 -16.182  1.00  0.00    -0.027 C 
BRANCH   8   9
HETATM    9  C   UNL     1     -27.533  14.262 -16.173  1.00  0.00     0.053 C 
BRANCH   9  10
HETATM   10  C   UNL     1     -28.114  14.986 -17.361  1.00  0.00    -0.027 C 
HETATM   11  C   UNL     1     -28.280  16.317 -17.466  1.00  0.00    -0.027 C 
BRANCH  11  12
HETATM   12  C   UNL     1     -27.862  17.334 -16.436  1.00  0.00     0.053 C 
BRANCH  12  13
HETATM   13  C   UNL     1     -28.752  18.551 -16.490  1.00  0.00    -0.027 C 
HETATM   14  C   UNL     1     -29.042  19.378 -15.468  1.00  0.00    -0.027 C 
BRANCH  14  15
HETATM   15  C   UNL     1     -28.573  19.230 -14.045  1.00  0.00     0.053 C 
BRANCH  15  16
HETATM   16  C   UNL     1     -29.772  18.929 -13.173  1.00  0.00    -0.027 C 
HETATM   17  C   UNL     1     -30.206  17.725 -12.748  1.00  0.00    -0.027 C 
BRANCH  17  18
HETATM   18  C   UNL     1     -29.582  16.383 -13.027  1.00  0.00     0.053 C 
BRANCH  18  19
HETATM   19  C   UNL     1     -30.188  15.760 -14.263  1.00  0.00    -0.027 C 
HETATM   20  C   UNL     1     -31.177  14.846 -14.322  1.00  0.00    -0.027 C 
BRANCH  20  21
HETATM   21  C   UNL     1     -31.952  14.268 -13.163  1.00  0.00     0.053 C 
BRANCH  21  22
HETATM   22  C   UNL     1     -31.602  12.813 -12.954  1.00  0.00    -0.027 C 
HETATM   23  C   UNL     1     -30.672  12.311 -12.118  1.00  0.00    -0.031 C 
BRANCH  23  24
HETATM   24  C   UNL     1     -29.758  13.098 -11.216  1.00  0.00     0.022 C 
HETATM   25  C   UNL     1     -28.337  13.186 -11.758  1.00  0.00     0.009 C 
ENDBRANCH  23  24
ENDBRANCH  21  22
ENDBRANCH  20  21
ENDBRANCH  18  19
ENDBRANCH  17  18
ENDBRANCH  15  16
ENDBRANCH  14  15
ENDBRANCH  12  13
ENDBRANCH  11  12
ENDBRANCH   9  10
ENDBRANCH   8   9
ENDBRANCH   6   7
ENDBRANCH   5   6
ENDBRANCH   3   5
ENDBRANCH   1   3
TORSDOF 15
ENDMDL
MODEL 14
REMARK VINA RESULT:      -3.7      3.471      6.283
REMARK  15 active torsions:
REMARK  status: ('A' for Active; 'I' for Inactive)
REMARK    1  A    between atoms: O_1  and  C_23 
REMARK    2  A    between atoms: C_3  and  C_7 
REMARK    3  A    between atoms: C_3  and  C_8 
REMARK    4  A    between atoms: C_4  and  C_10 
REMARK    5  A    between atoms: C_4  and  C_11 
REMARK    6  A    between atoms: C_5  and  C_12 
REMARK    7  A    between atoms: C_5  and  C_13 
REMARK    8  A    between atoms: C_6  and  C_15 
REMARK    9  A    between atoms: C_6  and  C_16 
REMARK   10  A    between atoms: C_7  and  C_23 
REMARK   11  A    between atoms: C_9  and  C_17 
REMARK   12  A    between atoms: C_9  and  C_18 
REMARK   13  A    between atoms: C_14  and  C_19 
REMARK   14  A    between atoms: C_14  and  C_20 
REMARK   15  A    between atoms: C_21  and  C_22 
ROOT
HETATM    1  O   UNL     1     -33.815  -9.619 -18.308  1.00  0.00    -0.776 OA
HETATM    2  H   UNL     1     -33.784 -10.085 -19.154  1.00  0.00     0.167 HD
ENDROOT
BRANCH   1   3
HETATM    3  C   UNL     1     -34.974  -9.132 -17.815  1.00  0.00     0.139 C 
HETATM    4  O   UNL     1     -35.880  -9.897 -17.513  1.00  0.00    -0.650 OA
BRANCH   3   5
HETATM    5  C   UNL     1     -35.145  -7.651 -17.634  1.00  0.00     0.113 C 
BRANCH   5   6
HETATM    6  C   UNL     1     -35.488  -7.313 -16.179  1.00  0.00     0.037 C 
BRANCH   6   7
HETATM    7  C   UNL     1     -36.073  -5.925 -16.079  1.00  0.00    -0.030 C 
HETATM    8  C   UNL     1     -36.958  -5.480 -15.161  1.00  0.00    -0.027 C 
BRANCH   8   9
HETATM    9  C   UNL     1     -37.573  -6.262 -14.020  1.00  0.00     0.053 C 
BRANCH   9  10
HETATM   10  C   UNL     1     -38.818  -6.982 -14.472  1.00  0.00    -0.027 C 
HETATM   11  C   UNL     1     -39.140  -8.255 -14.180  1.00  0.00    -0.027 C 
BRANCH  11  12
HETATM   12  C   UNL     1     -38.341  -9.177 -13.297  1.00  0.00     0.053 C 
BRANCH  12  13
HETATM   13  C   UNL     1     -37.221  -9.827 -14.071  1.00  0.00    -0.027 C 
HETATM   14  C   UNL     1     -35.953 -10.003 -13.654  1.00  0.00    -0.027 C 
BRANCH  14  15
HETATM   15  C   UNL     1     -35.379  -9.540 -12.341  1.00  0.00     0.053 C 
BRANCH  15  16
HETATM   16  C   UNL     1     -34.766  -8.171 -12.540  1.00  0.00    -0.027 C 
HETATM   17  C   UNL     1     -34.926  -7.072 -11.775  1.00  0.00    -0.027 C 
BRANCH  17  18
HETATM   18  C   UNL     1     -35.745  -6.951 -10.517  1.00  0.00     0.053 C 
BRANCH  18  19
HETATM   19  C   UNL     1     -36.672  -5.760 -10.597  1.00  0.00    -0.027 C 
HETATM   20  C   UNL     1     -37.649  -5.422  -9.732  1.00  0.00    -0.027 C 
BRANCH  20  21
HETATM   21  C   UNL     1     -38.012  -6.126  -8.447  1.00  0.00     0.053 C 
BRANCH  21  22
HETATM   22  C   UNL     1     -37.259  -5.534  -7.279  1.00  0.00    -0.027 C 
HETATM   23  C   UNL     1     -36.414  -6.172  -6.446  1.00  0.00    -0.031 C 
BRANCH  23  24
HETATM   24  C   UNL     1     -36.046  -7.633  -6.487  1.00  0.00     0.022 C 
HETATM   25  C   UNL     1     -36.779  -8.449  -5.430  1.00  0.00     0.009 C 
ENDBRANCH  23  24
ENDBRANCH  21  22
ENDBRANCH  20  21
ENDBRANCH  18  19
ENDBRANCH  17  18
ENDBRANCH  15  16
ENDBRANCH  14  15
ENDBRANCH  12  13
ENDBRANCH  11  12
ENDBRANCH   9  10
ENDBRANCH   8   9
ENDBRANCH   6   7
ENDBRANCH   5   6
ENDBRANCH   3   5
ENDBRANCH   1   3
TORSDOF 15
ENDMDL
MODEL 15
REMARK VINA RESULT:      -3.7     23.481     26.578
REMARK  15 active torsions:
REMARK  status: ('A' for Active; 'I' for Inactive)
REMARK    1  A    between atoms: O_1  and  C_23 
REMARK    2  A    between atoms: C_3  and  C_7 
REMARK    3  A    between atoms: C_3  and  C_8 
REMARK    4  A    between atoms: C_4  and  C_10 
REMARK    5  A    between atoms: C_4  and  C_11 
REMARK    6  A    between atoms: C_5  and  C_12 
REMARK    7  A    between atoms: C_5  and  C_13 
REMARK    8  A    between atoms: C_6  and  C_15 
REMARK    9  A    between atoms: C_6  and  C_16 
REMARK   10  A    between atoms: C_7  and  C_23 
REMARK   11  A    between atoms: C_9  and  C_17 
REMARK   12  A    between atoms: C_9  and  C_18 
REMARK   13  A    between atoms: C_14  and  C_19 
REMARK   14  A    between atoms: C_14  and  C_20 
REMARK   15  A    between atoms: C_21  and  C_22 
ROOT
HETATM    1  O   UNL     1     -31.778  12.429  -8.847  1.00  0.00    -0.776 OA
HETATM    2  H   UNL     1     -32.600  12.796  -8.496  1.00  0.00     0.167 HD
ENDROOT
BRANCH   1   3
HETATM    3  C   UNL     1     -30.670  13.189  -8.987  1.00  0.00     0.139 C 
HETATM    4  O   UNL     1     -29.857  13.259  -8.077  1.00  0.00    -0.650 OA
BRANCH   3   5
HETATM    5  C   UNL     1     -30.440  13.944 -10.265  1.00  0.00     0.113 C 
BRANCH   5   6
HETATM    6  C   UNL     1     -29.829  15.322  -9.985  1.00  0.00     0.037 C 
BRANCH   6   7
HETATM    7  C   UNL     1     -29.860  16.180 -11.226  1.00  0.00    -0.030 C 
HETATM    8  C   UNL     1     -28.998  17.166 -11.553  1.00  0.00    -0.027 C 
BRANCH   8   9
HETATM    9  C   UNL     1     -27.802  17.645 -10.760  1.00  0.00     0.053 C 
BRANCH   9  10
HETATM   10  C   UNL     1     -28.140  18.888  -9.975  1.00  0.00    -0.027 C 
HETATM   11  C   UNL     1     -28.542  18.921  -8.692  1.00  0.00    -0.027 C 
BRANCH  11  12
HETATM   12  C   UNL     1     -28.672  17.725  -7.785  1.00  0.00     0.053 C 
BRANCH  12  13
HETATM   13  C   UNL     1     -27.593  17.729  -6.731  1.00  0.00    -0.027 C 
HETATM   14  C   UNL     1     -26.373  17.168  -6.828  1.00  0.00    -0.027 C 
BRANCH  14  15
HETATM   15  C   UNL     1     -25.853  16.374  -7.997  1.00  0.00     0.053 C 
BRANCH  15  16
HETATM   16  C   UNL     1     -26.457  14.988  -7.944  1.00  0.00    -0.027 C 
HETATM   17  C   UNL     1     -26.538  14.081  -8.938  1.00  0.00    -0.027 C 
BRANCH  17  18
HETATM   18  C   UNL     1     -26.025  14.226 -10.346  1.00  0.00     0.053 C 
BRANCH  18  19
HETATM   19  C   UNL     1     -26.852  13.400 -11.303  1.00  0.00    -0.027 C 
HETATM   20  C   UNL     1     -27.201  13.714 -12.568  1.00  0.00    -0.027 C 
BRANCH  20  21
HETATM   21  C   UNL     1     -26.801  14.944 -13.344  1.00  0.00     0.053 C 
BRANCH  21  22
HETATM   22  C   UNL     1     -25.566  14.678 -14.173  1.00  0.00    -0.027 C 
HETATM   23  C   UNL     1     -25.501  14.509 -15.508  1.00  0.00    -0.031 C 
BRANCH  23  24
HETATM   24  C   UNL     1     -26.659  14.529 -16.472  1.00  0.00     0.022 C 
HETATM   25  C   UNL     1     -27.282  13.152 -16.664  1.00  0.00     0.009 C 
ENDBRANCH  23  24
ENDBRANCH  21  22
ENDBRANCH  20  21
ENDBRANCH  18  19
ENDBRANCH  17  18
ENDBRANCH  15  16
ENDBRANCH  14  15
ENDBRANCH  12  13
ENDBRANCH  11  12
ENDBRANCH   9  10
ENDBRANCH   8   9
ENDBRANCH   6   7
ENDBRANCH   5   6
ENDBRANCH   3   5
ENDBRANCH   1   3
TORSDOF 15
ENDMDL
MODEL 16
REMARK VINA RESULT:      -3.7      4.885      9.326
REMARK  15 active torsions:
REMARK  status: ('A' for Active; 'I' for Inactive)
REMARK    1  A    between atoms: O_1  and  C_23 
REMARK    2  A    between atoms: C_3  and  C_7 
REMARK    3  A    between atoms: C_3  and  C_8 
REMARK    4  A    between atoms: C_4  and  C_10 
REMARK    5  A    between atoms: C_4  and  C_11 
REMARK    6  A    between atoms: C_5  and  C_12 
REMARK    7  A    between atoms: C_5  and  C_13 
REMARK    8  A    between atoms: C_6  and  C_15 
REMARK    9  A    between atoms: C_6  and  C_16 
REMARK   10  A    between atoms: C_7  and  C_23 
REMARK   11  A    between atoms: C_9  and  C_17 
REMARK   12  A    between atoms: C_9  and  C_18 
REMARK   13  A    between atoms: C_14  and  C_19 
REMARK   14  A    between atoms: C_14  and  C_20 
REMARK   15  A    between atoms: C_21  and  C_22 
ROOT
HETATM    1  O   UNL     1     -34.957 -11.389  -8.055  1.00  0.00    -0.776 OA
HETATM    2  H   UNL     1     -34.523 -11.782  -7.285  1.00  0.00     0.167 HD
ENDROOT
BRANCH   1   3
HETATM    3  C   UNL     1     -34.278 -10.609  -8.923  1.00  0.00     0.139 C 
HETATM    4  O   UNL     1     -33.056 -10.630  -8.939  1.00  0.00    -0.650 OA
BRANCH   3   5
HETATM    5  C   UNL     1     -35.030  -9.718  -9.871  1.00  0.00     0.113 C 
BRANCH   5   6
HETATM    6  C   UNL     1     -34.534  -8.271  -9.772  1.00  0.00     0.037 C 
BRANCH   6   7
HETATM    7  C   UNL     1     -34.632  -7.770  -8.351  1.00  0.00    -0.030 C 
HETATM    8  C   UNL     1     -35.757  -7.429  -7.686  1.00  0.00    -0.027 C 
BRANCH   8   9
HETATM    9  C   UNL     1     -37.179  -7.466  -8.202  1.00  0.00     0.053 C 
BRANCH   9  10
HETATM   10  C   UNL     1     -37.746  -6.074  -8.316  1.00  0.00    -0.027 C 
HETATM   11  C   UNL     1     -37.641  -5.268  -9.388  1.00  0.00    -0.027 C 
BRANCH  11  12
HETATM   12  C   UNL     1     -36.987  -5.634 -10.695  1.00  0.00     0.053 C 
BRANCH  12  13
HETATM   13  C   UNL     1     -37.826  -6.630 -11.456  1.00  0.00    -0.027 C 
HETATM   14  C   UNL     1     -37.976  -6.698 -12.792  1.00  0.00    -0.027 C 
BRANCH  14  15
HETATM   15  C   UNL     1     -37.373  -5.758 -13.802  1.00  0.00     0.053 C 
BRANCH  15  16
HETATM   16  C   UNL     1     -38.270  -5.721 -15.019  1.00  0.00    -0.027 C 
HETATM   17  C   UNL     1     -37.919  -5.875 -16.312  1.00  0.00    -0.027 C 
BRANCH  17  18
HETATM   18  C   UNL     1     -36.540  -6.144 -16.854  1.00  0.00     0.053 C 
BRANCH  18  19
HETATM   19  C   UNL     1     -36.327  -7.626 -17.059  1.00  0.00    -0.027 C 
HETATM   20  C   UNL     1     -35.552  -8.453 -16.327  1.00  0.00    -0.027 C 
BRANCH  20  21
HETATM   21  C   UNL     1     -34.757  -8.101 -15.095  1.00  0.00     0.053 C 
BRANCH  21  22
HETATM   22  C   UNL     1     -35.227  -8.902 -13.903  1.00  0.00    -0.027 C 
HETATM   23  C   UNL     1     -34.712 -10.060 -13.445  1.00  0.00    -0.031 C 
BRANCH  23  24
HETATM   24  C   UNL     1     -33.557 -10.824 -14.037  1.00  0.00     0.022 C 
HETATM   25  C   UNL     1     -33.976 -11.700 -15.210  1.00  0.00     0.009 C 
ENDBRANCH  23  24
ENDBRANCH  21  22
ENDBRANCH  20  21
ENDBRANCH  18  19
ENDBRANCH  17  18
ENDBRANCH  15  16
ENDBRANCH  14  15
ENDBRANCH  12  13
ENDBRANCH  11  12
ENDBRANCH   9  10
ENDBRANCH   8   9
ENDBRANCH   6   7
ENDBRANCH   5   6
ENDBRANCH   3   5
ENDBRANCH   1   3
TORSDOF 15
ENDMDL
MODEL 17
REMARK VINA RESULT:      -3.7     23.482     26.335
REMARK  15 active torsions:
REMARK  status: ('A' for Active; 'I' for Inactive)
REMARK    1  A    between atoms: O_1  and  C_23 
REMARK    2  A    between atoms: C_3  and  C_7 
REMARK    3  A    between atoms: C_3  and  C_8 
REMARK    4  A    between atoms: C_4  and  C_10 
REMARK    5  A    between atoms: C_4  and  C_11 
REMARK    6  A    between atoms: C_5  and  C_12 
REMARK    7  A    between atoms: C_5  and  C_13 
REMARK    8  A    between atoms: C_6  and  C_15 
REMARK    9  A    between atoms: C_6  and  C_16 
REMARK   10  A    between atoms: C_7  and  C_23 
REMARK   11  A    between atoms: C_9  and  C_17 
REMARK   12  A    between atoms: C_9  and  C_18 
REMARK   13  A    between atoms: C_14  and  C_19 
REMARK   14  A    between atoms: C_14  and  C_20 
REMARK   15  A    between atoms: C_21  and  C_22 
ROOT
HETATM    1  O   UNL     1     -31.095  19.924 -15.742  1.00  0.00    -0.776 OA
HETATM    2  H   UNL     1     -31.958  19.536 -15.942  1.00  0.00     0.167 HD
ENDROOT
BRANCH   1   3
HETATM    3  C   UNL     1     -30.063  19.831 -16.608  1.00  0.00     0.139 C 
HETATM    4  O   UNL     1     -30.168  20.288 -17.737  1.00  0.00    -0.650 OA
BRANCH   3   5
HETATM    5  C   UNL     1     -28.786  19.167 -16.178  1.00  0.00     0.113 C 
BRANCH   5   6
HETATM    6  C   UNL     1     -28.681  19.121 -14.649  1.00  0.00     0.037 C 
BRANCH   6   7
HETATM    7  C   UNL     1     -27.697  18.061 -14.215  1.00  0.00    -0.030 C 
HETATM    8  C   UNL     1     -27.661  17.425 -13.025  1.00  0.00    -0.027 C 
BRANCH   8   9
HETATM    9  C   UNL     1     -28.591  17.621 -11.847  1.00  0.00     0.053 C 
BRANCH   9  10
HETATM   10  C   UNL     1     -27.852  18.207 -10.671  1.00  0.00    -0.027 C 
HETATM   11  C   UNL     1     -27.479  17.539  -9.565  1.00  0.00    -0.027 C 
BRANCH  11  12
HETATM   12  C   UNL     1     -27.682  16.066  -9.324  1.00  0.00     0.053 C 
BRANCH  12  13
HETATM   13  C   UNL     1     -26.359  15.342  -9.275  1.00  0.00    -0.027 C 
HETATM   14  C   UNL     1     -25.796  14.629 -10.268  1.00  0.00    -0.027 C 
BRANCH  14  15
HETATM   15  C   UNL     1     -26.399  14.368 -11.623  1.00  0.00     0.053 C 
BRANCH  15  16
HETATM   16  C   UNL     1     -27.417  13.257 -11.490  1.00  0.00    -0.027 C 
HETATM   17  C   UNL     1     -28.653  13.196 -12.027  1.00  0.00    -0.027 C 
BRANCH  17  18
HETATM   18  C   UNL     1     -29.311  14.222 -12.911  1.00  0.00     0.053 C 
BRANCH  18  19
HETATM   19  C   UNL     1     -29.887  13.570 -14.146  1.00  0.00    -0.027 C 
HETATM   20  C   UNL     1     -30.007  14.107 -15.378  1.00  0.00    -0.027 C 
BRANCH  20  21
HETATM   21  C   UNL     1     -29.542  15.471 -15.825  1.00  0.00     0.053 C 
BRANCH  21  22
HETATM   22  C   UNL     1     -28.520  15.355 -16.932  1.00  0.00    -0.027 C 
HETATM   23  C   UNL     1     -27.201  15.118 -16.801  1.00  0.00    -0.031 C 
BRANCH  23  24
HETATM   24  C   UNL     1     -26.445  14.934 -15.511  1.00  0.00     0.022 C 
HETATM   25  C   UNL     1     -26.208  13.466 -15.178  1.00  0.00     0.009 C 
ENDBRANCH  23  24
ENDBRANCH  21  22
ENDBRANCH  20  21
ENDBRANCH  18  19
ENDBRANCH  17  18
ENDBRANCH  15  16
ENDBRANCH  14  15
ENDBRANCH  12  13
ENDBRANCH  11  12
ENDBRANCH   9  10
ENDBRANCH   8   9
ENDBRANCH   6   7
ENDBRANCH   5   6
ENDBRANCH   3   5
ENDBRANCH   1   3
TORSDOF 15
ENDMDL
MODEL 18
REMARK VINA RESULT:      -3.6     22.714     25.130
REMARK  15 active torsions:
REMARK  status: ('A' for Active; 'I' for Inactive)
REMARK    1  A    between atoms: O_1  and  C_23 
REMARK    2  A    between atoms: C_3  and  C_7 
REMARK    3  A    between atoms: C_3  and  C_8 
REMARK    4  A    between atoms: C_4  and  C_10 
REMARK    5  A    between atoms: C_4  and  C_11 
REMARK    6  A    between atoms: C_5  and  C_12 
REMARK    7  A    between atoms: C_5  and  C_13 
REMARK    8  A    between atoms: C_6  and  C_15 
REMARK    9  A    between atoms: C_6  and  C_16 
REMARK   10  A    between atoms: C_7  and  C_23 
REMARK   11  A    between atoms: C_9  and  C_17 
REMARK   12  A    between atoms: C_9  and  C_18 
REMARK   13  A    between atoms: C_14  and  C_19 
REMARK   14  A    between atoms: C_14  and  C_20 
REMARK   15  A    between atoms: C_21  and  C_22 
ROOT
HETATM    1  O   UNL     1     -27.900  19.280 -13.966  1.00  0.00    -0.776 OA
HETATM    2  H   UNL     1     -27.842  19.934 -14.677  1.00  0.00     0.167 HD
ENDROOT
BRANCH   1   3
HETATM    3  C   UNL     1     -27.994  17.959 -14.230  1.00  0.00     0.139 C 
HETATM    4  O   UNL     1     -27.540  17.509 -15.273  1.00  0.00    -0.650 OA
BRANCH   3   5
HETATM    5  C   UNL     1     -28.654  17.045 -13.238  1.00  0.00     0.113 C 
BRANCH   5   6
HETATM    6  C   UNL     1     -29.675  16.134 -13.928  1.00  0.00     0.037 C 
BRANCH   6   7
HETATM    7  C   UNL     1     -29.588  14.728 -13.383  1.00  0.00    -0.030 C 
HETATM    8  C   UNL     1     -30.084  13.607 -13.947  1.00  0.00    -0.027 C 
BRANCH   8   9
HETATM    9  C   UNL     1     -30.842  13.489 -15.252  1.00  0.00     0.053 C 
BRANCH   9  10
HETATM   10  C   UNL     1     -30.056  12.687 -16.259  1.00  0.00    -0.027 C 
HETATM   11  C   UNL     1     -29.068  13.160 -17.040  1.00  0.00    -0.027 C 
BRANCH  11  12
HETATM   12  C   UNL     1     -28.527  14.565 -17.011  1.00  0.00     0.053 C 
BRANCH  12  13
HETATM   13  C   UNL     1     -27.030  14.569 -17.200  1.00  0.00    -0.027 C 
HETATM   14  C   UNL     1     -26.103  14.277 -16.269  1.00  0.00    -0.027 C 
BRANCH  14  15
HETATM   15  C   UNL     1     -26.370  13.931 -14.828  1.00  0.00     0.053 C 
BRANCH  15  16
HETATM   16  C   UNL     1     -25.609  14.902 -13.952  1.00  0.00    -0.027 C 
HETATM   17  C   UNL     1     -25.675  15.036 -12.612  1.00  0.00    -0.027 C 
BRANCH  17  18
HETATM   18  C   UNL     1     -26.518  14.232 -11.659  1.00  0.00     0.053 C 
BRANCH  18  19
HETATM   19  C   UNL     1     -25.745  13.916 -10.399  1.00  0.00    -0.027 C 
HETATM   20  C   UNL     1     -25.646  14.672  -9.286  1.00  0.00    -0.027 C 
BRANCH  20  21
HETATM   21  C   UNL     1     -26.332  15.988  -9.016  1.00  0.00     0.053 C 
BRANCH  21  22
HETATM   22  C   UNL     1     -27.442  15.819  -8.005  1.00  0.00    -0.027 C 
HETATM   23  C   UNL     1     -28.713  15.444  -8.245  1.00  0.00    -0.031 C 
BRANCH  23  24
HETATM   24  C   UNL     1     -29.316  15.128  -9.589  1.00  0.00     0.022 C 
HETATM   25  C   UNL     1     -30.331  16.173 -10.034  1.00  0.00     0.009 C 
ENDBRANCH  23  24
ENDBRANCH  21  22
ENDBRANCH  20  21
ENDBRANCH  18  19
ENDBRANCH  17  18
ENDBRANCH  15  16
ENDBRANCH  14  15
ENDBRANCH  12  13
ENDBRANCH  11  12
ENDBRANCH   9  10
ENDBRANCH   8   9
ENDBRANCH   6   7
ENDBRANCH   5   6
ENDBRANCH   3   5
ENDBRANCH   1   3
TORSDOF 15
ENDMDL
MODEL 19
REMARK VINA RESULT:      -3.6      5.192      9.375
REMARK  15 active torsions:
REMARK  status: ('A' for Active; 'I' for Inactive)
REMARK    1  A    between atoms: O_1  and  C_23 
REMARK    2  A    between atoms: C_3  and  C_7 
REMARK    3  A    between atoms: C_3  and  C_8 
REMARK    4  A    between atoms: C_4  and  C_10 
REMARK    5  A    between atoms: C_4  and  C_11 
REMARK    6  A    between atoms: C_5  and  C_12 
REMARK    7  A    between atoms: C_5  and  C_13 
REMARK    8  A    between atoms: C_6  and  C_15 
REMARK    9  A    between atoms: C_6  and  C_16 
REMARK   10  A    between atoms: C_7  and  C_23 
REMARK   11  A    between atoms: C_9  and  C_17 
REMARK   12  A    between atoms: C_9  and  C_18 
REMARK   13  A    between atoms: C_14  and  C_19 
REMARK   14  A    between atoms: C_14  and  C_20 
REMARK   15  A    between atoms: C_21  and  C_22 
ROOT
HETATM    1  O   UNL     1     -33.800  -8.269 -14.538  1.00  0.00    -0.776 OA
HETATM    2  H   UNL     1     -33.268  -9.003 -14.202  1.00  0.00     0.167 HD
ENDROOT
BRANCH   1   3
HETATM    3  C   UNL     1     -34.543  -8.393 -15.659  1.00  0.00     0.139 C 
HETATM    4  O   UNL     1     -34.560  -9.454 -16.268  1.00  0.00    -0.650 OA
BRANCH   3   5
HETATM    5  C   UNL     1     -35.350  -7.227 -16.153  1.00  0.00     0.113 C 
BRANCH   5   6
HETATM    6  C   UNL     1     -36.788  -7.294 -15.626  1.00  0.00     0.037 C 
BRANCH   6   7
HETATM    7  C   UNL     1     -37.131  -6.044 -14.852  1.00  0.00    -0.030 C 
HETATM    8  C   UNL     1     -37.222  -5.918 -13.511  1.00  0.00    -0.027 C 
BRANCH   8   9
HETATM    9  C   UNL     1     -37.004  -6.993 -12.468  1.00  0.00     0.053 C 
BRANCH   9  10
HETATM   10  C   UNL     1     -38.208  -7.120 -11.569  1.00  0.00    -0.027 C 
HETATM   11  C   UNL     1     -38.479  -6.343 -10.504  1.00  0.00    -0.027 C 
BRANCH  11  12
HETATM   12  C   UNL     1     -37.657  -5.166 -10.049  1.00  0.00     0.053 C 
BRANCH  12  13
HETATM   13  C   UNL     1     -37.640  -5.070  -8.544  1.00  0.00    -0.027 C 
HETATM   14  C   UNL     1     -36.977  -5.879  -7.696  1.00  0.00    -0.027 C 
BRANCH  14  15
HETATM   15  C   UNL     1     -36.152  -7.079  -8.077  1.00  0.00     0.053 C 
BRANCH  15  16
HETATM   16  C   UNL     1     -34.999  -7.199  -7.104  1.00  0.00    -0.027 C 
HETATM   17  C   UNL     1     -35.025  -7.674  -5.843  1.00  0.00    -0.027 C 
BRANCH  17  18
HETATM   18  C   UNL     1     -36.216  -8.223  -5.102  1.00  0.00     0.053 C 
BRANCH  18  19
HETATM   19  C   UNL     1     -36.633  -7.285  -3.993  1.00  0.00    -0.027 C 
HETATM   20  C   UNL     1     -37.732  -6.505  -3.948  1.00  0.00    -0.027 C 
BRANCH  20  21
HETATM   21  C   UNL     1     -38.836  -6.427  -4.974  1.00  0.00     0.053 C 
BRANCH  21  22
HETATM   22  C   UNL     1     -39.674  -7.684  -4.958  1.00  0.00    -0.027 C 
HETATM   23  C   UNL     1     -39.960  -8.486  -6.002  1.00  0.00    -0.031 C 
BRANCH  23  24
HETATM   24  C   UNL     1     -39.520  -8.292  -7.430  1.00  0.00     0.022 C 
HETATM   25  C   UNL     1     -39.234  -9.611  -8.136  1.00  0.00     0.009 C 
ENDBRANCH  23  24
ENDBRANCH  21  22
ENDBRANCH  20  21
ENDBRANCH  18  19
ENDBRANCH  17  18
ENDBRANCH  15  16
ENDBRANCH  14  15
ENDBRANCH  12  13
ENDBRANCH  11  12
ENDBRANCH   9  10
ENDBRANCH   8   9
ENDBRANCH   6   7
ENDBRANCH   5   6
ENDBRANCH   3   5
ENDBRANCH   1   3
TORSDOF 15
ENDMDL
MODEL 20
REMARK VINA RESULT:      -3.6     24.919     27.461
REMARK  15 active torsions:
REMARK  status: ('A' for Active; 'I' for Inactive)
REMARK    1  A    between atoms: O_1  and  C_23 
REMARK    2  A    between atoms: C_3  and  C_7 
REMARK    3  A    between atoms: C_3  and  C_8 
REMARK    4  A    between atoms: C_4  and  C_10 
REMARK    5  A    between atoms: C_4  and  C_11 
REMARK    6  A    between atoms: C_5  and  C_12 
REMARK    7  A    between atoms: C_5  and  C_13 
REMARK    8  A    between atoms: C_6  and  C_15 
REMARK    9  A    between atoms: C_6  and  C_16 
REMARK   10  A    between atoms: C_7  and  C_23 
REMARK   11  A    between atoms: C_9  and  C_17 
REMARK   12  A    between atoms: C_9  and  C_18 
REMARK   13  A    between atoms: C_14  and  C_19 
REMARK   14  A    between atoms: C_14  and  C_20 
REMARK   15  A    between atoms: C_21  and  C_22 
ROOT
HETATM    1  O   UNL     1     -26.034  18.057  -6.272  1.00  0.00    -0.776 OA
HETATM    2  H   UNL     1     -25.508  18.600  -5.668  1.00  0.00     0.167 HD
ENDROOT
BRANCH   1   3
HETATM    3  C   UNL     1     -27.355  17.861  -6.072  1.00  0.00     0.139 C 
HETATM    4  O   UNL     1     -27.735  17.058  -5.232  1.00  0.00    -0.650 OA
BRANCH   3   5
HETATM    5  C   UNL     1     -28.355  18.635  -6.883  1.00  0.00     0.113 C 
BRANCH   5   6
HETATM    6  C   UNL     1     -28.852  17.807  -8.074  1.00  0.00     0.037 C 
BRANCH   6   7
HETATM    7  C   UNL     1     -27.813  17.770  -9.168  1.00  0.00    -0.030 C 
HETATM    8  C   UNL     1     -28.033  17.803 -10.499  1.00  0.00    -0.027 C 
BRANCH   8   9
HETATM    9  C   UNL     1     -29.367  17.884 -11.211  1.00  0.00     0.053 C 
BRANCH   9  10
HETATM   10  C   UNL     1     -29.695  19.310 -11.576  1.00  0.00    -0.027 C 
HETATM   11  C   UNL     1     -29.328  19.935 -12.709  1.00  0.00    -0.027 C 
BRANCH  11  12
HETATM   12  C   UNL     1     -28.572  19.304 -13.849  1.00  0.00     0.053 C 
BRANCH  12  13
HETATM   13  C   UNL     1     -29.472  19.095 -15.042  1.00  0.00    -0.027 C 
HETATM   14  C   UNL     1     -30.112  17.959 -15.375  1.00  0.00    -0.027 C 
BRANCH  14  15
HETATM   15  C   UNL     1     -30.021  16.644 -14.648  1.00  0.00     0.053 C 
BRANCH  15  16
HETATM   16  C   UNL     1     -28.930  15.815 -15.289  1.00  0.00    -0.027 C 
HETATM   17  C   UNL     1     -27.797  15.354 -14.721  1.00  0.00    -0.027 C 
BRANCH  17  18
HETATM   18  C   UNL     1     -27.355  15.542 -13.293  1.00  0.00     0.053 C 
BRANCH  18  19
HETATM   19  C   UNL     1     -28.033  14.539 -12.389  1.00  0.00    -0.027 C 
HETATM   20  C   UNL     1     -27.454  13.738 -11.471  1.00  0.00    -0.027 C 
BRANCH  20  21
HETATM   21  C   UNL     1     -25.994  13.695 -11.093  1.00  0.00     0.053 C 
BRANCH  21  22
HETATM   22  C   UNL     1     -25.681  14.731 -10.039  1.00  0.00    -0.027 C 
HETATM   23  C   UNL     1     -25.972  14.671  -8.724  1.00  0.00    -0.031 C 
BRANCH  23  24
HETATM   24  C   UNL     1     -26.695  13.555  -8.016  1.00  0.00     0.022 C 
HETATM   25  C   UNL     1     -27.664  14.068  -6.958  1.00  0.00     0.009 C 
ENDBRANCH  23  24
ENDBRANCH  21  22
ENDBRANCH  20  21
ENDBRANCH  18  19
ENDBRANCH  17  18
ENDBRANCH  15  16
ENDBRANCH  14  15
ENDBRANCH  12  13
ENDBRANCH  11  12
ENDBRANCH   9  10
ENDBRANCH   8   9
ENDBRANCH   6   7
ENDBRANCH   5   6
ENDBRANCH   3   5
ENDBRANCH   1   3
TORSDOF 15
ENDMDL
