MODEL 1
REMARK VINA RESULT:      -6.6      0.000      0.000
REMARK  2 active torsions:
REMARK  status: ('A' for Active; 'I' for Inactive)
REMARK    1  A    between atoms: N_3  and  C_15 
REMARK    2  A    between atoms: C_5  and  C_7 
ROOT
HETATM    1  S   UNL     1     -37.918  -4.415 -11.905  1.00  0.00    -0.069 SA
HETATM    2  N   UNL     1     -36.944  -6.751 -12.031  1.00  0.00    -0.344 N 
HETATM    3  C   UNL     1     -37.035  -6.413 -10.704  1.00  0.00     0.052 A 
HETATM    4  C   UNL     1     -37.426  -5.746 -12.839  1.00  0.00     0.087 A 
HETATM    5  C   UNL     1     -37.554  -5.152 -10.454  1.00  0.00     0.034 A 
HETATM    6  C   UNL     1     -36.640  -7.217  -9.621  1.00  0.00     0.031 A 
HETATM    7  C   UNL     1     -37.710  -4.642  -9.168  1.00  0.00     0.028 A 
HETATM    8  C   UNL     1     -36.330  -8.018 -12.453  1.00  0.00     0.157 C 
HETATM    9  C   UNL     1     -37.323  -5.444  -8.079  1.00  0.00    -0.061 A 
HETATM   10  C   UNL     1     -36.788  -6.729  -8.313  1.00  0.00     0.009 A 
HETATM   11  C   UNL     1     -37.469  -4.946  -6.672  1.00  0.00     0.048 C 
ENDROOT
BRANCH   4  12
HETATM   12  C   UNL     1     -37.572  -5.742 -14.331  1.00  0.00    -0.002 A 
HETATM   13  C   UNL     1     -37.240  -4.633 -15.129  1.00  0.00     0.016 A 
HETATM   14  C   UNL     1     -37.371  -4.680 -16.520  1.00  0.00     0.030 A 
HETATM   15  C   UNL     1     -37.831  -5.842 -17.174  1.00  0.00     0.029 A 
HETATM   16  C   UNL     1     -38.142  -6.960 -16.371  1.00  0.00     0.030 A 
HETATM   17  C   UNL     1     -38.005  -6.911 -14.981  1.00  0.00     0.016 A 
BRANCH  15  18
HETATM   18  N   UNL     1     -37.968  -5.891 -18.611  1.00  0.00    -0.390 N 
HETATM   19  C   UNL     1     -37.619  -4.737 -19.429  1.00  0.00     0.149 C 
HETATM   20  C   UNL     1     -38.457  -7.095 -19.269  1.00  0.00     0.149 C 
ENDBRANCH  15  18
ENDBRANCH   4  12
TORSDOF 2
ENDMDL
MODEL 2
REMARK VINA RESULT:      -6.6      2.016      7.688
REMARK  2 active torsions:
REMARK  status: ('A' for Active; 'I' for Inactive)
REMARK    1  A    between atoms: N_3  and  C_15 
REMARK    2  A    between atoms: C_5  and  C_7 
ROOT
HETATM    1  S   UNL     1     -37.937  -5.873 -14.288  1.00  0.00    -0.069 SA
HETATM    2  N   UNL     1     -35.781  -7.080 -13.725  1.00  0.00    -0.344 N 
HETATM    3  C   UNL     1     -35.885  -7.038 -15.093  1.00  0.00     0.052 A 
HETATM    4  C   UNL     1     -36.841  -6.443 -13.121  1.00  0.00     0.087 A 
HETATM    5  C   UNL     1     -37.020  -6.405 -15.575  1.00  0.00     0.034 A 
HETATM    6  C   UNL     1     -34.966  -7.585 -16.005  1.00  0.00     0.031 A 
HETATM    7  C   UNL     1     -37.292  -6.279 -16.934  1.00  0.00     0.028 A 
HETATM    8  C   UNL     1     -34.679  -7.796 -13.067  1.00  0.00     0.157 C 
HETATM    9  C   UNL     1     -36.374  -6.818 -17.854  1.00  0.00    -0.061 A 
HETATM   10  C   UNL     1     -35.215  -7.470 -17.382  1.00  0.00     0.009 A 
HETATM   11  C   UNL     1     -36.616  -6.710 -19.330  1.00  0.00     0.048 C 
ENDROOT
BRANCH   4  12
HETATM   12  C   UNL     1     -37.071  -6.202 -11.660  1.00  0.00    -0.002 A 
HETATM   13  C   UNL     1     -37.340  -4.929 -11.127  1.00  0.00     0.016 A 
HETATM   14  C   UNL     1     -37.571  -4.752  -9.759  1.00  0.00     0.030 A 
HETATM   15  C   UNL     1     -37.553  -5.845  -8.867  1.00  0.00     0.029 A 
HETATM   16  C   UNL     1     -37.305  -7.124  -9.409  1.00  0.00     0.030 A 
HETATM   17  C   UNL     1     -37.079  -7.297 -10.777  1.00  0.00     0.016 A 
BRANCH  15  18
HETATM   18  N   UNL     1     -37.790  -5.664  -7.454  1.00  0.00    -0.390 N 
HETATM   19  C   UNL     1     -38.182  -6.790  -6.617  1.00  0.00     0.149 C 
HETATM   20  C   UNL     1     -37.644  -4.352  -6.839  1.00  0.00     0.149 C 
ENDBRANCH  15  18
ENDBRANCH   4  12
TORSDOF 2
ENDMDL
MODEL 3
REMARK VINA RESULT:      -6.6      0.351      1.383
REMARK  2 active torsions:
REMARK  status: ('A' for Active; 'I' for Inactive)
REMARK    1  A    between atoms: N_3  and  C_15 
REMARK    2  A    between atoms: C_5  and  C_7 
ROOT
HETATM    1  S   UNL     1     -37.910  -4.434 -11.665  1.00  0.00    -0.069 SA
HETATM    2  N   UNL     1     -37.066  -6.823 -11.659  1.00  0.00    -0.344 N 
HETATM    3  C   UNL     1     -37.159  -6.416 -10.352  1.00  0.00     0.052 A 
HETATM    4  C   UNL     1     -37.478  -5.835 -12.525  1.00  0.00     0.087 A 
HETATM    5  C   UNL     1     -37.611  -5.118 -10.174  1.00  0.00     0.034 A 
HETATM    6  C   UNL     1     -36.827  -7.186  -9.224  1.00  0.00     0.031 A 
HETATM    7  C   UNL     1     -37.759  -4.537  -8.917  1.00  0.00     0.028 A 
HETATM    8  C   UNL     1     -36.517  -8.141 -12.009  1.00  0.00     0.157 C 
HETATM    9  C   UNL     1     -37.434  -5.304  -7.783  1.00  0.00    -0.061 A 
HETATM   10  C   UNL     1     -36.969  -6.626  -7.945  1.00  0.00     0.009 A 
HETATM   11  C   UNL     1     -37.575  -4.730  -6.405  1.00  0.00     0.048 C 
ENDROOT
BRANCH   4  12
HETATM   12  C   UNL     1     -37.599  -5.896 -14.017  1.00  0.00    -0.002 A 
HETATM   13  C   UNL     1     -38.106  -7.017 -14.698  1.00  0.00     0.016 A 
HETATM   14  C   UNL     1     -38.223  -7.023 -16.092  1.00  0.00     0.030 A 
HETATM   15  C   UNL     1     -37.847  -5.903 -16.863  1.00  0.00     0.029 A 
HETATM   16  C   UNL     1     -37.360  -4.772 -16.173  1.00  0.00     0.030 A 
HETATM   17  C   UNL     1     -37.249  -4.768 -14.781  1.00  0.00     0.016 A 
BRANCH  15  18
HETATM   18  N   UNL     1     -37.966  -5.908 -18.302  1.00  0.00    -0.390 N 
HETATM   19  C   UNL     1     -38.445  -7.093 -19.002  1.00  0.00     0.149 C 
HETATM   20  C   UNL     1     -37.610  -4.730 -19.081  1.00  0.00     0.149 C 
ENDBRANCH  15  18
ENDBRANCH   4  12
TORSDOF 2
ENDMDL
MODEL 4
REMARK VINA RESULT:      -6.6      1.737      7.725
REMARK  2 active torsions:
REMARK  status: ('A' for Active; 'I' for Inactive)
REMARK    1  A    between atoms: N_3  and  C_15 
REMARK    2  A    between atoms: C_5  and  C_7 
ROOT
HETATM    1  S   UNL     1     -37.556  -4.867 -14.754  1.00  0.00    -0.069 SA
HETATM    2  N   UNL     1     -36.743  -7.243 -15.093  1.00  0.00    -0.344 N 
HETATM    3  C   UNL     1     -36.961  -6.700 -16.334  1.00  0.00     0.052 A 
HETATM    4  C   UNL     1     -37.003  -6.333 -14.094  1.00  0.00     0.087 A 
HETATM    5  C   UNL     1     -37.414  -5.391 -16.330  1.00  0.00     0.034 A 
HETATM    6  C   UNL     1     -36.780  -7.358 -17.564  1.00  0.00     0.031 A 
HETATM    7  C   UNL     1     -37.695  -4.687 -17.498  1.00  0.00     0.028 A 
HETATM    8  C   UNL     1     -36.348  -8.650 -14.936  1.00  0.00     0.157 C 
HETATM    9  C   UNL     1     -37.511  -5.336 -18.732  1.00  0.00    -0.061 A 
HETATM   10  C   UNL     1     -37.055  -6.671 -18.757  1.00  0.00     0.009 A 
HETATM   11  C   UNL     1     -37.797  -4.626 -20.021  1.00  0.00     0.048 C 
ENDROOT
BRANCH   4  12
HETATM   12  C   UNL     1     -36.824  -6.497 -12.615  1.00  0.00    -0.002 A 
HETATM   13  C   UNL     1     -35.632  -6.969 -12.036  1.00  0.00     0.016 A 
HETATM   14  C   UNL     1     -35.500  -7.086 -10.650  1.00  0.00     0.030 A 
HETATM   15  C   UNL     1     -36.552  -6.727  -9.781  1.00  0.00     0.029 A 
HETATM   16  C   UNL     1     -37.738  -6.234 -10.365  1.00  0.00     0.030 A 
HETATM   17  C   UNL     1     -37.865  -6.114 -11.751  1.00  0.00     0.016 A 
BRANCH  15  18
HETATM   18  N   UNL     1     -36.417  -6.849  -8.348  1.00  0.00    -0.390 N 
HETATM   19  C   UNL     1     -37.357  -6.184  -7.456  1.00  0.00     0.149 C 
HETATM   20  C   UNL     1     -35.339  -7.637  -7.769  1.00  0.00     0.149 C 
ENDBRANCH  15  18
ENDBRANCH   4  12
TORSDOF 2
ENDMDL
MODEL 5
REMARK VINA RESULT:      -6.5      1.722      7.722
REMARK  2 active torsions:
REMARK  status: ('A' for Active; 'I' for Inactive)
REMARK    1  A    between atoms: N_3  and  C_15 
REMARK    2  A    between atoms: C_5  and  C_7 
ROOT
HETATM    1  S   UNL     1     -37.574  -4.814 -14.751  1.00  0.00    -0.069 SA
HETATM    2  N   UNL     1     -36.897  -7.240 -15.029  1.00  0.00    -0.344 N 
HETATM    3  C   UNL     1     -37.082  -6.717 -16.284  1.00  0.00     0.052 A 
HETATM    4  C   UNL     1     -37.106  -6.291 -14.053  1.00  0.00     0.087 A 
HETATM    5  C   UNL     1     -37.459  -5.384 -16.314  1.00  0.00     0.034 A 
HETATM    6  C   UNL     1     -36.937  -7.414 -17.495  1.00  0.00     0.031 A 
HETATM    7  C   UNL     1     -37.699  -4.694 -17.499  1.00  0.00     0.028 A 
HETATM    8  C   UNL     1     -36.583  -8.662 -14.835  1.00  0.00     0.157 C 
HETATM    9  C   UNL     1     -37.550  -5.384 -18.716  1.00  0.00    -0.061 A 
HETATM   10  C   UNL     1     -37.170  -6.743 -18.706  1.00  0.00     0.009 A 
HETATM   11  C   UNL     1     -37.794  -4.691 -20.023  1.00  0.00     0.048 C 
ENDROOT
BRANCH   4  12
HETATM   12  C   UNL     1     -36.939  -6.429 -12.570  1.00  0.00    -0.002 A 
HETATM   13  C   UNL     1     -37.983  -6.195 -11.657  1.00  0.00     0.016 A 
HETATM   14  C   UNL     1     -37.789  -6.357 -10.282  1.00  0.00     0.030 A 
HETATM   15  C   UNL     1     -36.544  -6.769  -9.762  1.00  0.00     0.029 A 
HETATM   16  C   UNL     1     -35.506  -7.024 -10.683  1.00  0.00     0.030 A 
HETATM   17  C   UNL     1     -35.705  -6.865 -12.057  1.00  0.00     0.016 A 
BRANCH  15  18
HETATM   18  N   UNL     1     -36.342  -6.935  -8.342  1.00  0.00    -0.390 N 
HETATM   19  C   UNL     1     -37.253  -6.321  -7.386  1.00  0.00     0.149 C 
HETATM   20  C   UNL     1     -35.223  -7.720  -7.838  1.00  0.00     0.149 C 
ENDBRANCH  15  18
ENDBRANCH   4  12
TORSDOF 2
ENDMDL
MODEL 6
REMARK VINA RESULT:      -6.5      2.964      8.725
REMARK  2 active torsions:
REMARK  status: ('A' for Active; 'I' for Inactive)
REMARK    1  A    between atoms: N_3  and  C_15 
REMARK    2  A    between atoms: C_5  and  C_7 
ROOT
HETATM    1  S   UNL     1     -37.951  -6.061 -18.849  1.00  0.00    -0.069 SA
HETATM    2  N   UNL     1     -35.729  -7.133 -18.269  1.00  0.00    -0.344 N 
HETATM    3  C   UNL     1     -35.821  -7.089 -19.637  1.00  0.00     0.052 A 
HETATM    4  C   UNL     1     -36.834  -6.568 -17.673  1.00  0.00     0.087 A 
HETATM    5  C   UNL     1     -36.988  -6.526 -20.129  1.00  0.00     0.034 A 
HETATM    6  C   UNL     1     -34.860  -7.571 -20.543  1.00  0.00     0.031 A 
HETATM    7  C   UNL     1     -37.254  -6.409 -21.490  1.00  0.00     0.028 A 
HETATM    8  C   UNL     1     -34.591  -7.782 -17.603  1.00  0.00     0.157 C 
HETATM    9  C   UNL     1     -36.294  -6.883 -22.403  1.00  0.00    -0.061 A 
HETATM   10  C   UNL     1     -35.101  -7.464 -21.922  1.00  0.00     0.009 A 
HETATM   11  C   UNL     1     -36.526  -6.782 -23.880  1.00  0.00     0.048 C 
ENDROOT
BRANCH   4  12
HETATM   12  C   UNL     1     -37.094  -6.351 -16.213  1.00  0.00    -0.002 A 
HETATM   13  C   UNL     1     -37.000  -7.378 -15.257  1.00  0.00     0.016 A 
HETATM   14  C   UNL     1     -37.230  -7.127 -13.902  1.00  0.00     0.030 A 
HETATM   15  C   UNL     1     -37.555  -5.834 -13.442  1.00  0.00     0.029 A 
HETATM   16  C   UNL     1     -37.627  -4.801 -14.401  1.00  0.00     0.030 A 
HETATM   17  C   UNL     1     -37.392  -5.055 -15.754  1.00  0.00     0.016 A 
BRANCH  15  18
HETATM   18  N   UNL     1     -37.794  -5.573 -12.041  1.00  0.00    -0.390 N 
HETATM   19  C   UNL     1     -37.676  -4.223 -11.508  1.00  0.00     0.149 C 
HETATM   20  C   UNL     1     -38.156  -6.655 -11.136  1.00  0.00     0.149 C 
ENDBRANCH  15  18
ENDBRANCH   4  12
TORSDOF 2
ENDMDL
MODEL 7
REMARK VINA RESULT:      -6.4      1.310      1.934
REMARK  2 active torsions:
REMARK  status: ('A' for Active; 'I' for Inactive)
REMARK    1  A    between atoms: N_3  and  C_15 
REMARK    2  A    between atoms: C_5  and  C_7 
ROOT
HETATM    1  S   UNL     1     -37.598  -5.869 -12.386  1.00  0.00    -0.069 SA
HETATM    2  N   UNL     1     -35.608  -7.282 -13.070  1.00  0.00    -0.344 N 
HETATM    3  C   UNL     1     -35.652  -7.267 -11.699  1.00  0.00     0.052 A 
HETATM    4  C   UNL     1     -36.651  -6.565 -13.613  1.00  0.00     0.087 A 
HETATM    5  C   UNL     1     -36.691  -6.532 -11.153  1.00  0.00     0.034 A 
HETATM    6  C   UNL     1     -34.742  -7.908 -10.840  1.00  0.00     0.031 A 
HETATM    7  C   UNL     1     -36.883  -6.401  -9.780  1.00  0.00     0.028 A 
HETATM    8  C   UNL     1     -34.512  -7.944 -13.790  1.00  0.00     0.157 C 
HETATM    9  C   UNL     1     -35.980  -7.045  -8.914  1.00  0.00    -0.061 A 
HETATM   10  C   UNL     1     -34.912  -7.795  -9.451  1.00  0.00     0.009 A 
HETATM   11  C   UNL     1     -36.139  -6.939  -7.427  1.00  0.00     0.048 C 
ENDROOT
BRANCH   4  12
HETATM   12  C   UNL     1     -37.007  -6.392 -15.058  1.00  0.00    -0.002 A 
HETATM   13  C   UNL     1     -37.259  -7.475 -15.920  1.00  0.00     0.016 A 
HETATM   14  C   UNL     1     -37.611  -7.268 -17.257  1.00  0.00     0.030 A 
HETATM   15  C   UNL     1     -37.736  -5.967 -17.788  1.00  0.00     0.029 A 
HETATM   16  C   UNL     1     -37.504  -4.883 -16.914  1.00  0.00     0.030 A 
HETATM   17  C   UNL     1     -37.157  -5.094 -15.578  1.00  0.00     0.016 A 
BRANCH  15  18
HETATM   18  N   UNL     1     -38.098  -5.751 -19.169  1.00  0.00    -0.390 N 
HETATM   19  C   UNL     1     -37.584  -4.601 -19.900  1.00  0.00     0.149 C 
HETATM   20  C   UNL     1     -38.985  -6.679 -19.857  1.00  0.00     0.149 C 
ENDBRANCH  15  18
ENDBRANCH   4  12
TORSDOF 2
ENDMDL
MODEL 8
REMARK VINA RESULT:      -6.4      2.063      8.147
REMARK  2 active torsions:
REMARK  status: ('A' for Active; 'I' for Inactive)
REMARK    1  A    between atoms: N_3  and  C_15 
REMARK    2  A    between atoms: C_5  and  C_7 
ROOT
HETATM    1  S   UNL     1     -37.613  -4.767 -11.620  1.00  0.00    -0.069 SA
HETATM    2  N   UNL     1     -36.675  -7.103 -11.910  1.00  0.00    -0.344 N 
HETATM    3  C   UNL     1     -36.878  -6.581 -13.163  1.00  0.00     0.052 A 
HETATM    4  C   UNL     1     -37.013  -6.198 -10.928  1.00  0.00     0.087 A 
HETATM    5  C   UNL     1     -37.393  -5.295 -13.186  1.00  0.00     0.034 A 
HETATM    6  C   UNL     1     -36.624  -7.240 -14.379  1.00  0.00     0.031 A 
HETATM    7  C   UNL     1     -37.669  -4.615 -14.369  1.00  0.00     0.028 A 
HETATM    8  C   UNL     1     -36.218  -8.487 -11.726  1.00  0.00     0.157 C 
HETATM    9  C   UNL     1     -37.413  -5.265 -15.591  1.00  0.00    -0.061 A 
HETATM   10  C   UNL     1     -36.892  -6.576 -15.587  1.00  0.00     0.009 A 
HETATM   11  C   UNL     1     -37.690  -4.580 -16.895  1.00  0.00     0.048 C 
ENDROOT
BRANCH   4  12
HETATM   12  C   UNL     1     -36.875  -6.342  -9.443  1.00  0.00    -0.002 A 
HETATM   13  C   UNL     1     -35.905  -7.162  -8.840  1.00  0.00     0.016 A 
HETATM   14  C   UNL     1     -35.798  -7.250  -7.449  1.00  0.00     0.030 A 
HETATM   15  C   UNL     1     -36.650  -6.512  -6.601  1.00  0.00     0.029 A 
HETATM   16  C   UNL     1     -37.607  -5.673  -7.210  1.00  0.00     0.030 A 
HETATM   17  C   UNL     1     -37.709  -5.585  -8.601  1.00  0.00     0.016 A 
BRANCH  15  18
HETATM   18  N   UNL     1     -36.541  -6.603  -5.164  1.00  0.00    -0.390 N 
HETATM   19  C   UNL     1     -37.430  -5.836  -4.302  1.00  0.00     0.149 C 
HETATM   20  C   UNL     1     -35.538  -7.462  -4.548  1.00  0.00     0.149 C 
ENDBRANCH  15  18
ENDBRANCH   4  12
TORSDOF 2
ENDMDL
MODEL 9
REMARK VINA RESULT:      -6.4      2.472      3.203
REMARK  2 active torsions:
REMARK  status: ('A' for Active; 'I' for Inactive)
REMARK    1  A    between atoms: N_3  and  C_15 
REMARK    2  A    between atoms: C_5  and  C_7 
ROOT
HETATM    1  S   UNL     1     -36.312  -7.853 -12.988  1.00  0.00    -0.069 SA
HETATM    2  N   UNL     1     -37.169  -5.635 -13.866  1.00  0.00    -0.344 N 
HETATM    3  C   UNL     1     -37.276  -5.607 -12.498  1.00  0.00     0.052 A 
HETATM    4  C   UNL     1     -36.618  -6.819 -14.302  1.00  0.00     0.087 A 
HETATM    5  C   UNL     1     -36.846  -6.755 -11.852  1.00  0.00     0.034 A 
HETATM    6  C   UNL     1     -37.787  -4.542 -11.735  1.00  0.00     0.031 A 
HETATM    7  C   UNL     1     -36.890  -6.903 -10.468  1.00  0.00     0.028 A 
HETATM    8  C   UNL     1     -37.669  -4.528 -14.692  1.00  0.00     0.157 C 
HETATM    9  C   UNL     1     -37.394  -5.839  -9.697  1.00  0.00    -0.061 A 
HETATM   10  C   UNL     1     -37.841  -4.664 -10.337  1.00  0.00     0.009 A 
HETATM   11  C   UNL     1     -37.464  -5.943  -8.203  1.00  0.00     0.048 C 
ENDROOT
BRANCH   4  12
HETATM   12  C   UNL     1     -36.266  -7.222 -15.702  1.00  0.00    -0.002 A 
HETATM   13  C   UNL     1     -37.230  -7.580 -16.661  1.00  0.00     0.016 A 
HETATM   14  C   UNL     1     -36.859  -7.928 -17.963  1.00  0.00     0.030 A 
HETATM   15  C   UNL     1     -35.507  -7.923 -18.365  1.00  0.00     0.029 A 
HETATM   16  C   UNL     1     -34.545  -7.541 -17.406  1.00  0.00     0.030 A 
HETATM   17  C   UNL     1     -34.920  -7.190 -16.107  1.00  0.00     0.016 A 
BRANCH  15  18
HETATM   18  N   UNL     1     -35.122  -8.283 -19.709  1.00  0.00    -0.390 N 
HETATM   19  C   UNL     1     -35.253  -7.326 -20.800  1.00  0.00     0.149 C 
HETATM   20  C   UNL     1     -34.598  -9.610 -20.001  1.00  0.00     0.149 C 
ENDBRANCH  15  18
ENDBRANCH   4  12
TORSDOF 2
ENDMDL
MODEL 10
REMARK VINA RESULT:      -6.4      1.481      2.559
REMARK  2 active torsions:
REMARK  status: ('A' for Active; 'I' for Inactive)
REMARK    1  A    between atoms: N_3  and  C_15 
REMARK    2  A    between atoms: C_5  and  C_7 
ROOT
HETATM    1  S   UNL     1     -37.660  -4.726  -9.866  1.00  0.00    -0.069 SA
HETATM    2  N   UNL     1     -36.309  -6.862  -9.691  1.00  0.00    -0.344 N 
HETATM    3  C   UNL     1     -36.600  -6.453  -8.414  1.00  0.00     0.052 A 
HETATM    4  C   UNL     1     -36.857  -6.016 -10.628  1.00  0.00     0.087 A 
HETATM    5  C   UNL     1     -37.343  -5.286  -8.328  1.00  0.00     0.034 A 
HETATM    6  C   UNL     1     -36.201  -7.099  -7.232  1.00  0.00     0.031 A 
HETATM    7  C   UNL     1     -37.721  -4.721  -7.113  1.00  0.00     0.028 A 
HETATM    8  C   UNL     1     -35.453  -8.031  -9.939  1.00  0.00     0.157 C 
HETATM    9  C   UNL     1     -37.330  -5.365  -5.925  1.00  0.00    -0.061 A 
HETATM   10  C   UNL     1     -36.570  -6.552  -5.992  1.00  0.00     0.009 A 
HETATM   11  C   UNL     1     -37.710  -4.802  -4.589  1.00  0.00     0.048 C 
ENDROOT
BRANCH   4  12
HETATM   12  C   UNL     1     -36.836  -6.141 -12.121  1.00  0.00    -0.002 A 
HETATM   13  C   UNL     1     -36.110  -7.140 -12.795  1.00  0.00     0.016 A 
HETATM   14  C   UNL     1     -36.137  -7.234 -14.190  1.00  0.00     0.030 A 
HETATM   15  C   UNL     1     -36.900  -6.340 -14.970  1.00  0.00     0.029 A 
HETATM   16  C   UNL     1     -37.644  -5.354 -14.288  1.00  0.00     0.030 A 
HETATM   17  C   UNL     1     -37.619  -5.265 -12.894  1.00  0.00     0.016 A 
BRANCH  15  18
HETATM   18  N   UNL     1     -36.927  -6.436 -16.411  1.00  0.00    -0.390 N 
HETATM   19  C   UNL     1     -37.594  -5.417 -17.210  1.00  0.00     0.149 C 
HETATM   20  C   UNL     1     -36.290  -7.555 -17.092  1.00  0.00     0.149 C 
ENDBRANCH  15  18
ENDBRANCH   4  12
TORSDOF 2
ENDMDL
MODEL 11
REMARK VINA RESULT:      -6.4      2.020      2.972
REMARK  2 active torsions:
REMARK  status: ('A' for Active; 'I' for Inactive)
REMARK    1  A    between atoms: N_3  and  C_15 
REMARK    2  A    between atoms: C_5  and  C_7 
ROOT
HETATM    1  S   UNL     1     -37.604  -4.866 -14.729  1.00  0.00    -0.069 SA
HETATM    2  N   UNL     1     -36.158  -6.930 -14.460  1.00  0.00    -0.344 N 
HETATM    3  C   UNL     1     -36.491  -6.492 -13.203  1.00  0.00     0.052 A 
HETATM    4  C   UNL     1     -36.728  -6.141 -15.434  1.00  0.00     0.087 A 
HETATM    5  C   UNL     1     -37.289  -5.360 -13.168  1.00  0.00     0.034 A 
HETATM    6  C   UNL     1     -36.083  -7.080 -11.993  1.00  0.00     0.031 A 
HETATM    7  C   UNL     1     -37.714  -4.773 -11.979  1.00  0.00     0.028 A 
HETATM    8  C   UNL     1     -35.245  -8.065 -14.655  1.00  0.00     0.157 C 
HETATM    9  C   UNL     1     -37.315  -5.359 -10.764  1.00  0.00    -0.061 A 
HETATM   10  C   UNL     1     -36.499  -6.510 -10.779  1.00  0.00     0.009 A 
HETATM   11  C   UNL     1     -37.744  -4.771  -9.453  1.00  0.00     0.048 C 
ENDROOT
BRANCH   4  12
HETATM   12  C   UNL     1     -36.675  -6.315 -16.921  1.00  0.00    -0.002 A 
HETATM   13  C   UNL     1     -35.765  -7.175 -17.560  1.00  0.00     0.016 A 
HETATM   14  C   UNL     1     -35.765  -7.324 -18.950  1.00  0.00     0.030 A 
HETATM   15  C   UNL     1     -36.683  -6.625 -19.761  1.00  0.00     0.029 A 
HETATM   16  C   UNL     1     -37.610  -5.780 -19.115  1.00  0.00     0.030 A 
HETATM   17  C   UNL     1     -37.610  -5.637 -17.725  1.00  0.00     0.016 A 
BRANCH  15  18
HETATM   18  N   UNL     1     -36.684  -6.777 -21.197  1.00  0.00    -0.390 N 
HETATM   19  C   UNL     1     -35.507  -7.286 -21.889  1.00  0.00     0.149 C 
HETATM   20  C   UNL     1     -37.859  -6.425 -21.981  1.00  0.00     0.149 C 
ENDBRANCH  15  18
ENDBRANCH   4  12
TORSDOF 2
ENDMDL
MODEL 12
REMARK VINA RESULT:      -6.3      1.985      2.804
REMARK  2 active torsions:
REMARK  status: ('A' for Active; 'I' for Inactive)
REMARK    1  A    between atoms: N_3  and  C_15 
REMARK    2  A    between atoms: C_5  and  C_7 
ROOT
HETATM    1  S   UNL     1     -37.640  -4.845 -14.588  1.00  0.00    -0.069 SA
HETATM    2  N   UNL     1     -36.245  -6.948 -14.354  1.00  0.00    -0.344 N 
HETATM    3  C   UNL     1     -36.551  -6.513 -13.089  1.00  0.00     0.052 A 
HETATM    4  C   UNL     1     -36.807  -6.136 -15.314  1.00  0.00     0.087 A 
HETATM    5  C   UNL     1     -37.318  -5.360 -13.035  1.00  0.00     0.034 A 
HETATM    6  C   UNL     1     -36.143  -7.121 -11.889  1.00  0.00     0.031 A 
HETATM    7  C   UNL     1     -37.713  -4.773 -11.836  1.00  0.00     0.028 A 
HETATM    8  C   UNL     1     -35.365  -8.105 -14.570  1.00  0.00     0.157 C 
HETATM    9  C   UNL     1     -37.314  -5.379 -10.631  1.00  0.00    -0.061 A 
HETATM   10  C   UNL     1     -36.529  -6.551 -10.665  1.00  0.00     0.009 A 
HETATM   11  C   UNL     1     -37.711  -4.791  -9.310  1.00  0.00     0.048 C 
ENDROOT
BRANCH   4  12
HETATM   12  C   UNL     1     -36.777  -6.299 -16.803  1.00  0.00    -0.002 A 
HETATM   13  C   UNL     1     -37.641  -5.602 -17.667  1.00  0.00     0.016 A 
HETATM   14  C   UNL     1     -37.564  -5.768 -19.053  1.00  0.00     0.030 A 
HETATM   15  C   UNL     1     -36.612  -6.630 -19.636  1.00  0.00     0.029 A 
HETATM   16  C   UNL     1     -35.732  -7.310 -18.767  1.00  0.00     0.030 A 
HETATM   17  C   UNL     1     -35.809  -7.139 -17.383  1.00  0.00     0.016 A 
BRANCH  15  18
HETATM   18  N   UNL     1     -36.533  -6.802 -21.068  1.00  0.00    -0.390 N 
HETATM   19  C   UNL     1     -35.367  -7.429 -21.676  1.00  0.00     0.149 C 
HETATM   20  C   UNL     1     -37.615  -6.351 -21.931  1.00  0.00     0.149 C 
ENDBRANCH  15  18
ENDBRANCH   4  12
TORSDOF 2
ENDMDL
MODEL 13
REMARK VINA RESULT:      -6.3      2.817      4.107
REMARK  2 active torsions:
REMARK  status: ('A' for Active; 'I' for Inactive)
REMARK    1  A    between atoms: N_3  and  C_15 
REMARK    2  A    between atoms: C_5  and  C_7 
ROOT
HETATM    1  S   UNL     1     -36.262  -7.725  -8.518  1.00  0.00    -0.069 SA
HETATM    2  N   UNL     1     -37.162  -5.507  -9.349  1.00  0.00    -0.344 N 
HETATM    3  C   UNL     1     -37.267  -5.508  -7.981  1.00  0.00     0.052 A 
HETATM    4  C   UNL     1     -36.589  -6.671  -9.810  1.00  0.00     0.087 A 
HETATM    5  C   UNL     1     -36.814  -6.661  -7.359  1.00  0.00     0.034 A 
HETATM    6  C   UNL     1     -37.796  -4.470  -7.195  1.00  0.00     0.031 A 
HETATM    7  C   UNL     1     -36.853  -6.838  -5.979  1.00  0.00     0.028 A 
HETATM    8  C   UNL     1     -37.683  -4.392 -10.152  1.00  0.00     0.157 C 
HETATM    9  C   UNL     1     -37.376  -5.801  -5.185  1.00  0.00    -0.061 A 
HETATM   10  C   UNL     1     -37.846  -4.621  -5.800  1.00  0.00     0.009 A 
HETATM   11  C   UNL     1     -37.442  -5.937  -3.694  1.00  0.00     0.048 C 
ENDROOT
BRANCH   4  12
HETATM   12  C   UNL     1     -36.232  -7.037 -11.218  1.00  0.00    -0.002 A 
HETATM   13  C   UNL     1     -37.171  -7.061 -12.265  1.00  0.00     0.016 A 
HETATM   14  C   UNL     1     -36.790  -7.387 -13.570  1.00  0.00     0.030 A 
HETATM   15  C   UNL     1     -35.450  -7.696 -13.886  1.00  0.00     0.029 A 
HETATM   16  C   UNL     1     -34.507  -7.649 -12.837  1.00  0.00     0.030 A 
HETATM   17  C   UNL     1     -34.891  -7.318 -11.535  1.00  0.00     0.016 A 
BRANCH  15  18
HETATM   18  N   UNL     1     -35.055  -8.034 -15.233  1.00  0.00    -0.390 N 
HETATM   19  C   UNL     1     -35.005  -7.012 -16.270  1.00  0.00     0.149 C 
HETATM   20  C   UNL     1     -34.702  -9.403 -15.581  1.00  0.00     0.149 C 
ENDBRANCH  15  18
ENDBRANCH   4  12
TORSDOF 2
ENDMDL
MODEL 14
REMARK VINA RESULT:      -6.3      2.293      8.234
REMARK  2 active torsions:
REMARK  status: ('A' for Active; 'I' for Inactive)
REMARK    1  A    between atoms: N_3  and  C_15 
REMARK    2  A    between atoms: C_5  and  C_7 
ROOT
HETATM    1  S   UNL     1     -36.024  -7.598 -12.502  1.00  0.00    -0.069 SA
HETATM    2  N   UNL     1     -37.209  -5.419 -11.985  1.00  0.00    -0.344 N 
HETATM    3  C   UNL     1     -37.261  -5.604 -13.343  1.00  0.00     0.052 A 
HETATM    4  C   UNL     1     -36.571  -6.466 -11.359  1.00  0.00     0.087 A 
HETATM    5  C   UNL     1     -36.653  -6.762 -13.801  1.00  0.00     0.034 A 
HETATM    6  C   UNL     1     -37.851  -4.729 -14.271  1.00  0.00     0.031 A 
HETATM    7  C   UNL     1     -36.603  -7.106 -15.149  1.00  0.00     0.028 A 
HETATM    8  C   UNL     1     -37.731  -4.194 -11.363  1.00  0.00     0.157 C 
HETATM    9  C   UNL     1     -37.197  -6.238 -16.083  1.00  0.00    -0.061 A 
HETATM   10  C   UNL     1     -37.818  -5.052 -15.637  1.00  0.00     0.009 A 
HETATM   11  C   UNL     1     -37.175  -6.558 -17.548  1.00  0.00     0.048 C 
ENDROOT
BRANCH   4  12
HETATM   12  C   UNL     1     -36.367  -6.687  -9.891  1.00  0.00    -0.002 A 
HETATM   13  C   UNL     1     -37.274  -6.236  -8.915  1.00  0.00     0.016 A 
HETATM   14  C   UNL     1     -37.056  -6.484  -7.557  1.00  0.00     0.030 A 
HETATM   15  C   UNL     1     -35.925  -7.203  -7.116  1.00  0.00     0.029 A 
HETATM   16  C   UNL     1     -35.030  -7.674  -8.100  1.00  0.00     0.030 A 
HETATM   17  C   UNL     1     -35.253  -7.428  -9.457  1.00  0.00     0.016 A 
BRANCH  15  18
HETATM   18  N   UNL     1     -35.699  -7.460  -5.713  1.00  0.00    -0.390 N 
HETATM   19  C   UNL     1     -34.469  -8.099  -5.265  1.00  0.00     0.149 C 
HETATM   20  C   UNL     1     -36.696  -7.085  -4.720  1.00  0.00     0.149 C 
ENDBRANCH  15  18
ENDBRANCH   4  12
TORSDOF 2
ENDMDL
MODEL 15
REMARK VINA RESULT:      -6.2      2.105      8.259
REMARK  2 active torsions:
REMARK  status: ('A' for Active; 'I' for Inactive)
REMARK    1  A    between atoms: N_3  and  C_15 
REMARK    2  A    between atoms: C_5  and  C_7 
ROOT
HETATM    1  S   UNL     1     -36.001  -7.474 -16.941  1.00  0.00    -0.069 SA
HETATM    2  N   UNL     1     -37.308  -5.313 -16.727  1.00  0.00    -0.344 N 
HETATM    3  C   UNL     1     -37.198  -5.598 -18.065  1.00  0.00     0.052 A 
HETATM    4  C   UNL     1     -36.711  -6.285 -15.956  1.00  0.00     0.087 A 
HETATM    5  C   UNL     1     -36.504  -6.761 -18.362  1.00  0.00     0.034 A 
HETATM    6  C   UNL     1     -37.706  -4.817 -19.117  1.00  0.00     0.031 A 
HETATM    7  C   UNL     1     -36.290  -7.199 -19.666  1.00  0.00     0.028 A 
HETATM    8  C   UNL     1     -37.937  -4.069 -16.263  1.00  0.00     0.157 C 
HETATM    9  C   UNL     1     -36.801  -6.425 -20.725  1.00  0.00    -0.061 A 
HETATM   10  C   UNL     1     -37.507  -5.236 -20.443  1.00  0.00     0.009 A 
HETATM   11  C   UNL     1     -36.601  -6.849 -22.148  1.00  0.00     0.048 C 
ENDROOT
BRANCH   4  12
HETATM   12  C   UNL     1     -36.670  -6.392 -14.462  1.00  0.00    -0.002 A 
HETATM   13  C   UNL     1     -37.573  -5.718 -13.621  1.00  0.00     0.016 A 
HETATM   14  C   UNL     1     -37.512  -5.863 -12.232  1.00  0.00     0.030 A 
HETATM   15  C   UNL     1     -36.551  -6.698 -11.624  1.00  0.00     0.029 A 
HETATM   16  C   UNL     1     -35.661  -7.390 -12.473  1.00  0.00     0.030 A 
HETATM   17  C   UNL     1     -35.727  -7.245 -13.861  1.00  0.00     0.016 A 
BRANCH  15  18
HETATM   18  N   UNL     1     -36.486  -6.848 -10.189  1.00  0.00    -0.390 N 
HETATM   19  C   UNL     1     -37.337  -6.045  -9.321  1.00  0.00     0.149 C 
HETATM   20  C   UNL     1     -35.569  -7.803  -9.583  1.00  0.00     0.149 C 
ENDBRANCH  15  18
ENDBRANCH   4  12
TORSDOF 2
ENDMDL
MODEL 16
REMARK VINA RESULT:      -6.2      2.633      4.453
REMARK  2 active torsions:
REMARK  status: ('A' for Active; 'I' for Inactive)
REMARK    1  A    between atoms: N_3  and  C_15 
REMARK    2  A    between atoms: C_5  and  C_7 
ROOT
HETATM    1  S   UNL     1     -37.604  -5.767  -7.402  1.00  0.00    -0.069 SA
HETATM    2  N   UNL     1     -35.669  -7.218  -8.158  1.00  0.00    -0.344 N 
HETATM    3  C   UNL     1     -35.694  -7.246  -6.786  1.00  0.00     0.052 A 
HETATM    4  C   UNL     1     -36.695  -6.452  -8.664  1.00  0.00     0.087 A 
HETATM    5  C   UNL     1     -36.703  -6.496  -6.203  1.00  0.00     0.034 A 
HETATM    6  C   UNL     1     -34.794  -7.941  -5.961  1.00  0.00     0.031 A 
HETATM    7  C   UNL     1     -36.872  -6.403  -4.824  1.00  0.00     0.028 A 
HETATM    8  C   UNL     1     -34.604  -7.891  -8.914  1.00  0.00     0.157 C 
HETATM    9  C   UNL     1     -35.979  -7.101  -3.991  1.00  0.00    -0.061 A 
HETATM   10  C   UNL     1     -34.942  -7.867  -4.567  1.00  0.00     0.009 A 
HETATM   11  C   UNL     1     -36.114  -7.038  -2.500  1.00  0.00     0.048 C 
ENDROOT
BRANCH   4  12
HETATM   12  C   UNL     1     -37.066  -6.223 -10.097  1.00  0.00    -0.002 A 
HETATM   13  C   UNL     1     -37.162  -4.941 -10.667  1.00  0.00     0.016 A 
HETATM   14  C   UNL     1     -37.488  -4.773 -12.016  1.00  0.00     0.030 A 
HETATM   15  C   UNL     1     -37.724  -5.882 -12.856  1.00  0.00     0.029 A 
HETATM   16  C   UNL     1     -37.605  -7.167 -12.286  1.00  0.00     0.030 A 
HETATM   17  C   UNL     1     -37.273  -7.331 -10.938  1.00  0.00     0.016 A 
BRANCH  15  18
HETATM   18  N   UNL     1     -38.063  -5.709 -14.249  1.00  0.00    -0.390 N 
HETATM   19  C   UNL     1     -38.941  -6.658 -14.922  1.00  0.00     0.149 C 
HETATM   20  C   UNL     1     -37.532  -4.586 -15.009  1.00  0.00     0.149 C 
ENDBRANCH  15  18
ENDBRANCH   4  12
TORSDOF 2
ENDMDL
MODEL 17
REMARK VINA RESULT:      -6.2      2.853      8.879
REMARK  2 active torsions:
REMARK  status: ('A' for Active; 'I' for Inactive)
REMARK    1  A    between atoms: N_3  and  C_15 
REMARK    2  A    between atoms: C_5  and  C_7 
ROOT
HETATM    1  S   UNL     1     -37.521  -4.785  -9.843  1.00  0.00    -0.069 SA
HETATM    2  N   UNL     1     -37.012  -7.252 -10.120  1.00  0.00    -0.344 N 
HETATM    3  C   UNL     1     -37.179  -6.722 -11.374  1.00  0.00     0.052 A 
HETATM    4  C   UNL     1     -37.144  -6.288  -9.146  1.00  0.00     0.087 A 
HETATM    5  C   UNL     1     -37.467  -5.366 -11.405  1.00  0.00     0.034 A 
HETATM    6  C   UNL     1     -37.099  -7.432 -12.585  1.00  0.00     0.031 A 
HETATM    7  C   UNL     1     -37.675  -4.666 -12.590  1.00  0.00     0.028 A 
HETATM    8  C   UNL     1     -36.793  -8.691  -9.924  1.00  0.00     0.157 C 
HETATM    9  C   UNL     1     -37.590  -5.369 -13.806  1.00  0.00    -0.061 A 
HETATM   10  C   UNL     1     -37.303  -6.750 -13.796  1.00  0.00     0.009 A 
HETATM   11  C   UNL     1     -37.805  -4.666 -15.113  1.00  0.00     0.048 C 
ENDROOT
BRANCH   4  12
HETATM   12  C   UNL     1     -36.966  -6.431  -7.665  1.00  0.00    -0.002 A 
HETATM   13  C   UNL     1     -38.018  -6.261  -6.747  1.00  0.00     0.016 A 
HETATM   14  C   UNL     1     -37.812  -6.426  -5.374  1.00  0.00     0.030 A 
HETATM   15  C   UNL     1     -36.546  -6.779  -4.861  1.00  0.00     0.029 A 
HETATM   16  C   UNL     1     -35.499  -6.971  -5.787  1.00  0.00     0.030 A 
HETATM   17  C   UNL     1     -35.710  -6.809  -7.158  1.00  0.00     0.016 A 
BRANCH  15  18
HETATM   18  N   UNL     1     -36.332  -6.948  -3.442  1.00  0.00    -0.390 N 
HETATM   19  C   UNL     1     -35.242  -7.781  -2.951  1.00  0.00     0.149 C 
HETATM   20  C   UNL     1     -37.203  -6.292  -2.477  1.00  0.00     0.149 C 
ENDBRANCH  15  18
ENDBRANCH   4  12
TORSDOF 2
ENDMDL
MODEL 18
REMARK VINA RESULT:      -6.2      2.615      4.519
REMARK  2 active torsions:
REMARK  status: ('A' for Active; 'I' for Inactive)
REMARK    1  A    between atoms: N_3  and  C_15 
REMARK    2  A    between atoms: C_5  and  C_7 
ROOT
HETATM    1  S   UNL     1     -37.534  -4.738 -16.509  1.00  0.00    -0.069 SA
HETATM    2  N   UNL     1     -37.061  -7.211 -16.221  1.00  0.00    -0.344 N 
HETATM    3  C   UNL     1     -37.227  -6.674 -14.969  1.00  0.00     0.052 A 
HETATM    4  C   UNL     1     -37.230  -6.260 -17.202  1.00  0.00     0.087 A 
HETATM    5  C   UNL     1     -37.496  -5.315 -14.945  1.00  0.00     0.034 A 
HETATM    6  C   UNL     1     -37.131  -7.375 -13.754  1.00  0.00     0.031 A 
HETATM    7  C   UNL     1     -37.683  -4.604 -13.762  1.00  0.00     0.028 A 
HETATM    8  C   UNL     1     -36.682  -8.620 -16.401  1.00  0.00     0.157 C 
HETATM    9  C   UNL     1     -37.595  -5.300 -12.542  1.00  0.00    -0.061 A 
HETATM   10  C   UNL     1     -37.318  -6.683 -12.546  1.00  0.00     0.009 A 
HETATM   11  C   UNL     1     -37.790  -4.586 -11.239  1.00  0.00     0.048 C 
ENDROOT
BRANCH   4  12
HETATM   12  C   UNL     1     -37.205  -6.443 -18.689  1.00  0.00    -0.002 A 
HETATM   13  C   UNL     1     -38.316  -6.184 -19.511  1.00  0.00     0.016 A 
HETATM   14  C   UNL     1     -38.243  -6.346 -20.897  1.00  0.00     0.030 A 
HETATM   15  C   UNL     1     -37.050  -6.766 -21.523  1.00  0.00     0.029 A 
HETATM   16  C   UNL     1     -35.931  -7.004 -20.697  1.00  0.00     0.030 A 
HETATM   17  C   UNL     1     -36.007  -6.836 -19.312  1.00  0.00     0.016 A 
BRANCH  15  18
HETATM   18  N   UNL     1     -36.973  -6.936 -22.955  1.00  0.00    -0.390 N 
HETATM   19  C   UNL     1     -37.568  -5.953 -23.851  1.00  0.00     0.149 C 
HETATM   20  C   UNL     1     -36.302  -8.093 -23.531  1.00  0.00     0.149 C 
ENDBRANCH  15  18
ENDBRANCH   4  12
TORSDOF 2
ENDMDL
MODEL 19
REMARK VINA RESULT:      -6.1      3.062      9.345
REMARK  2 active torsions:
REMARK  status: ('A' for Active; 'I' for Inactive)
REMARK    1  A    between atoms: N_3  and  C_15 
REMARK    2  A    between atoms: C_5  and  C_7 
ROOT
HETATM    1  S   UNL     1     -37.599  -4.858 -19.514  1.00  0.00    -0.069 SA
HETATM    2  N   UNL     1     -36.700  -7.207 -19.819  1.00  0.00    -0.344 N 
HETATM    3  C   UNL     1     -36.906  -6.679 -21.069  1.00  0.00     0.052 A 
HETATM    4  C   UNL     1     -37.014  -6.301 -18.832  1.00  0.00     0.087 A 
HETATM    5  C   UNL     1     -37.402  -5.385 -21.083  1.00  0.00     0.034 A 
HETATM    6  C   UNL     1     -36.675  -7.337 -22.289  1.00  0.00     0.031 A 
HETATM    7  C   UNL     1     -37.679  -4.696 -22.261  1.00  0.00     0.028 A 
HETATM    8  C   UNL     1     -36.263  -8.599 -19.644  1.00  0.00     0.157 C 
HETATM    9  C   UNL     1     -37.444  -5.346 -23.487  1.00  0.00    -0.061 A 
HETATM   10  C   UNL     1     -36.943  -6.665 -23.493  1.00  0.00     0.009 A 
HETATM   11  C   UNL     1     -37.723  -4.653 -24.787  1.00  0.00     0.048 C 
ENDROOT
BRANCH   4  12
HETATM   12  C   UNL     1     -36.864  -6.452 -17.349  1.00  0.00    -0.002 A 
HETATM   13  C   UNL     1     -35.673  -6.883 -16.739  1.00  0.00     0.016 A 
HETATM   14  C   UNL     1     -35.570  -6.988 -15.349  1.00  0.00     0.030 A 
HETATM   15  C   UNL     1     -36.653  -6.657 -14.507  1.00  0.00     0.029 A 
HETATM   16  C   UNL     1     -37.839  -6.204 -15.122  1.00  0.00     0.030 A 
HETATM   17  C   UNL     1     -37.937  -6.095 -16.511  1.00  0.00     0.016 A 
BRANCH  15  18
HETATM   18  N   UNL     1     -36.548  -6.767 -13.071  1.00  0.00    -0.390 N 
HETATM   19  C   UNL     1     -35.421  -7.459 -12.460  1.00  0.00     0.149 C 
HETATM   20  C   UNL     1     -37.567  -6.188 -12.206  1.00  0.00     0.149 C 
ENDBRANCH  15  18
ENDBRANCH   4  12
TORSDOF 2
ENDMDL
MODEL 20
REMARK VINA RESULT:      -6.1      1.877      2.666
REMARK  2 active torsions:
REMARK  status: ('A' for Active; 'I' for Inactive)
REMARK    1  A    between atoms: N_3  and  C_15 
REMARK    2  A    between atoms: C_5  and  C_7 
ROOT
HETATM    1  S   UNL     1     -36.683  -7.856 -10.533  1.00  0.00    -0.069 SA
HETATM    2  N   UNL     1     -37.327  -5.429 -10.872  1.00  0.00    -0.344 N 
HETATM    3  C   UNL     1     -37.331  -5.672  -9.522  1.00  0.00     0.052 A 
HETATM    4  C   UNL     1     -36.955  -6.548 -11.583  1.00  0.00     0.087 A 
HETATM    5  C   UNL     1     -36.997  -6.967  -9.158  1.00  0.00     0.034 A 
HETATM    6  C   UNL     1     -37.654  -4.741  -8.520  1.00  0.00     0.031 A 
HETATM    7  C   UNL     1     -36.960  -7.392  -7.833  1.00  0.00     0.028 A 
HETATM    8  C   UNL     1     -37.747  -4.129 -11.414  1.00  0.00     0.157 C 
HETATM    9  C   UNL     1     -37.276  -6.464  -6.823  1.00  0.00    -0.061 A 
HETATM   10  C   UNL     1     -37.622  -5.142  -7.174  1.00  0.00     0.009 A 
HETATM   11  C   UNL     1     -37.251  -6.866  -5.379  1.00  0.00     0.048 C 
ENDROOT
BRANCH   4  12
HETATM   12  C   UNL     1     -36.755  -6.688 -13.062  1.00  0.00    -0.002 A 
HETATM   13  C   UNL     1     -37.654  -6.164 -14.008  1.00  0.00     0.016 A 
HETATM   14  C   UNL     1     -37.417  -6.298 -15.380  1.00  0.00     0.030 A 
HETATM   15  C   UNL     1     -36.265  -6.953 -15.863  1.00  0.00     0.029 A 
HETATM   16  C   UNL     1     -35.355  -7.457 -14.910  1.00  0.00     0.030 A 
HETATM   17  C   UNL     1     -35.593  -7.318 -13.541  1.00  0.00     0.016 A 
BRANCH  15  18
HETATM   18  N   UNL     1     -36.020  -7.093 -17.280  1.00  0.00    -0.390 N 
HETATM   19  C   UNL     1     -34.834  -7.787 -17.762  1.00  0.00     0.149 C 
HETATM   20  C   UNL     1     -36.953  -6.541 -18.252  1.00  0.00     0.149 C 
ENDBRANCH  15  18
ENDBRANCH   4  12
TORSDOF 2
ENDMDL
