MODEL 1
REMARK VINA RESULT:      -5.5      0.000      0.000
REMARK  15 active torsions:
REMARK  status: ('A' for Active; 'I' for Inactive)
REMARK    1  A    between atoms: O_1  and  C_18 
REMARK    2  A    between atoms: C_3  and  C_4 
REMARK    3  A    between atoms: C_3  and  C_5 
REMARK    4  A    between atoms: C_4  and  C_6 
REMARK    5  A    between atoms: C_5  and  C_7 
REMARK    6  A    between atoms: C_6  and  C_8 
REMARK    7  A    between atoms: C_7  and  C_9 
REMARK    8  A    between atoms: C_8  and  C_10 
REMARK    9  A    between atoms: C_9  and  C_11 
REMARK   10  A    between atoms: C_10  and  C_12 
REMARK   11  A    between atoms: C_11  and  C_13 
REMARK   12  A    between atoms: C_12  and  C_14 
REMARK   13  A    between atoms: C_13  and  C_15 
REMARK   14  A    between atoms: C_14  and  C_16 
REMARK   15  A    between atoms: C_16  and  C_18 
ROOT
HETATM    1  O   UNL     1      -1.820  -7.881  -9.181  1.00  0.00    -0.776 OA
HETATM    2  H   UNL     1      -2.436  -8.537  -8.828  1.00  0.00     0.167 HD
ENDROOT
BRANCH   1   3
HETATM    3  C   UNL     1      -2.125  -7.141 -10.268  1.00  0.00     0.139 C 
HETATM    4  O   UNL     1      -1.744  -5.981 -10.340  1.00  0.00    -0.650 OA
BRANCH   3   5
HETATM    5  C   UNL     1      -2.933  -7.768 -11.375  1.00  0.00     0.110 C 
BRANCH   5   6
HETATM    6  C   UNL     1      -2.065  -8.448 -12.444  1.00  0.00     0.010 C 
BRANCH   6   7
HETATM    7  C   UNL     1      -2.153  -7.701 -13.780  1.00  0.00     0.001 C 
BRANCH   7   8
HETATM    8  C   UNL     1      -3.603  -7.632 -14.277  1.00  0.00     0.000 C 
BRANCH   8   9
HETATM    9  C   UNL     1      -3.655  -7.380 -15.789  1.00  0.00     0.000 C 
BRANCH   9  10
HETATM   10  C   UNL     1      -2.255  -7.458 -16.408  1.00  0.00     0.000 C 
BRANCH  10  11
HETATM   11  C   UNL     1      -2.211  -8.491 -17.540  1.00  0.00     0.000 C 
BRANCH  11  12
HETATM   12  C   UNL     1      -2.938  -7.974 -18.787  1.00  0.00     0.000 C 
BRANCH  12  13
HETATM   13  C   UNL     1      -1.968  -7.260 -19.735  1.00  0.00     0.000 C 
BRANCH  13  14
HETATM   14  C   UNL     1      -2.518  -7.231 -21.166  1.00  0.00     0.000 C 
BRANCH  14  15
HETATM   15  C   UNL     1      -1.971  -8.403 -21.990  1.00  0.00     0.000 C 
BRANCH  15  16
HETATM   16  C   UNL     1      -2.607  -8.439 -23.384  1.00  0.00     0.000 C 
BRANCH  16  17
HETATM   17  C   UNL     1      -2.108  -7.274 -24.247  1.00  0.00    -0.000 C 
BRANCH  17  18
HETATM   18  C   UNL     1      -3.044  -7.031 -25.437  1.00  0.00    -0.005 C 
HETATM   19  C   UNL     1      -2.368  -7.399 -26.754  1.00  0.00     0.005 C 
ENDBRANCH  17  18
ENDBRANCH  16  17
ENDBRANCH  15  16
ENDBRANCH  14  15
ENDBRANCH  13  14
ENDBRANCH  12  13
ENDBRANCH  11  12
ENDBRANCH  10  11
ENDBRANCH   9  10
ENDBRANCH   8   9
ENDBRANCH   7   8
ENDBRANCH   6   7
ENDBRANCH   5   6
ENDBRANCH   3   5
ENDBRANCH   1   3
TORSDOF 15
ENDMDL
MODEL 2
REMARK VINA RESULT:      -5.5      6.164     14.572
REMARK  15 active torsions:
REMARK  status: ('A' for Active; 'I' for Inactive)
REMARK    1  A    between atoms: O_1  and  C_18 
REMARK    2  A    between atoms: C_3  and  C_4 
REMARK    3  A    between atoms: C_3  and  C_5 
REMARK    4  A    between atoms: C_4  and  C_6 
REMARK    5  A    between atoms: C_5  and  C_7 
REMARK    6  A    between atoms: C_6  and  C_8 
REMARK    7  A    between atoms: C_7  and  C_9 
REMARK    8  A    between atoms: C_8  and  C_10 
REMARK    9  A    between atoms: C_9  and  C_11 
REMARK   10  A    between atoms: C_10  and  C_12 
REMARK   11  A    between atoms: C_11  and  C_13 
REMARK   12  A    between atoms: C_12  and  C_14 
REMARK   13  A    between atoms: C_13  and  C_15 
REMARK   14  A    between atoms: C_14  and  C_16 
REMARK   15  A    between atoms: C_16  and  C_18 
ROOT
HETATM    1  O   UNL     1      -1.556  -7.264 -15.183  1.00  0.00    -0.776 OA
HETATM    2  H   UNL     1      -1.174  -7.796 -15.896  1.00  0.00     0.167 HD
ENDROOT
BRANCH   1   3
HETATM    3  C   UNL     1      -2.583  -7.722 -14.436  1.00  0.00     0.139 C 
HETATM    4  O   UNL     1      -3.732  -7.453 -14.754  1.00  0.00    -0.650 OA
BRANCH   3   5
HETATM    5  C   UNL     1      -2.284  -8.559 -13.219  1.00  0.00     0.110 C 
BRANCH   5   6
HETATM    6  C   UNL     1      -2.301  -7.752 -11.912  1.00  0.00     0.010 C 
BRANCH   6   7
HETATM    7  C   UNL     1      -3.686  -7.798 -11.256  1.00  0.00     0.001 C 
BRANCH   7   8
HETATM    8  C   UNL     1      -3.601  -7.435  -9.768  1.00  0.00     0.000 C 
BRANCH   8   9
HETATM    9  C   UNL     1      -2.182  -7.650  -9.228  1.00  0.00     0.000 C 
BRANCH   9  10
HETATM   10  C   UNL     1      -2.197  -8.540  -7.980  1.00  0.00     0.000 C 
BRANCH  10  11
HETATM   11  C   UNL     1      -2.903  -7.839  -6.813  1.00  0.00     0.000 C 
BRANCH  11  12
HETATM   12  C   UNL     1      -1.913  -7.007  -5.990  1.00  0.00     0.000 C 
BRANCH  12  13
HETATM   13  C   UNL     1      -2.046  -7.314  -4.494  1.00  0.00     0.000 C 
BRANCH  13  14
HETATM   14  C   UNL     1      -3.393  -7.980  -4.187  1.00  0.00     0.000 C 
BRANCH  14  15
HETATM   15  C   UNL     1      -3.396  -8.594  -2.782  1.00  0.00     0.000 C 
BRANCH  15  16
HETATM   16  C   UNL     1      -2.276  -8.001  -1.920  1.00  0.00     0.000 C 
BRANCH  16  17
HETATM   17  C   UNL     1      -2.292  -8.600  -0.509  1.00  0.00    -0.000 C 
BRANCH  17  18
HETATM   18  C   UNL     1      -2.186  -7.501   0.555  1.00  0.00    -0.005 C 
HETATM   19  C   UNL     1      -2.011  -6.128  -0.086  1.00  0.00     0.005 C 
ENDBRANCH  17  18
ENDBRANCH  16  17
ENDBRANCH  15  16
ENDBRANCH  14  15
ENDBRANCH  13  14
ENDBRANCH  12  13
ENDBRANCH  11  12
ENDBRANCH  10  11
ENDBRANCH   9  10
ENDBRANCH   8   9
ENDBRANCH   7   8
ENDBRANCH   6   7
ENDBRANCH   5   6
ENDBRANCH   3   5
ENDBRANCH   1   3
TORSDOF 15
ENDMDL
MODEL 3
REMARK VINA RESULT:      -5.5      6.154     14.256
REMARK  15 active torsions:
REMARK  status: ('A' for Active; 'I' for Inactive)
REMARK    1  A    between atoms: O_1  and  C_18 
REMARK    2  A    between atoms: C_3  and  C_4 
REMARK    3  A    between atoms: C_3  and  C_5 
REMARK    4  A    between atoms: C_4  and  C_6 
REMARK    5  A    between atoms: C_5  and  C_7 
REMARK    6  A    between atoms: C_6  and  C_8 
REMARK    7  A    between atoms: C_7  and  C_9 
REMARK    8  A    between atoms: C_8  and  C_10 
REMARK    9  A    between atoms: C_9  and  C_11 
REMARK   10  A    between atoms: C_10  and  C_12 
REMARK   11  A    between atoms: C_11  and  C_13 
REMARK   12  A    between atoms: C_12  and  C_14 
REMARK   13  A    between atoms: C_13  and  C_15 
REMARK   14  A    between atoms: C_14  and  C_16 
REMARK   15  A    between atoms: C_16  and  C_18 
ROOT
HETATM    1  O   UNL     1      -1.566  -7.380 -15.227  1.00  0.00    -0.776 OA
HETATM    2  H   UNL     1      -1.254  -7.917 -15.969  1.00  0.00     0.167 HD
ENDROOT
BRANCH   1   3
HETATM    3  C   UNL     1      -2.602  -7.777 -14.457  1.00  0.00     0.139 C 
HETATM    4  O   UNL     1      -3.742  -7.456 -14.761  1.00  0.00    -0.650 OA
BRANCH   3   5
HETATM    5  C   UNL     1      -2.325  -8.613 -13.234  1.00  0.00     0.110 C 
BRANCH   5   6
HETATM    6  C   UNL     1      -2.286  -7.790 -11.938  1.00  0.00     0.010 C 
BRANCH   6   7
HETATM    7  C   UNL     1      -3.660  -7.766 -11.260  1.00  0.00     0.001 C 
BRANCH   7   8
HETATM    8  C   UNL     1      -3.545  -7.316  -9.798  1.00  0.00     0.000 C 
BRANCH   8   9
HETATM    9  C   UNL     1      -2.143  -7.597  -9.244  1.00  0.00     0.000 C 
BRANCH   9  10
HETATM   10  C   UNL     1      -2.206  -8.550  -8.045  1.00  0.00     0.000 C 
BRANCH  10  11
HETATM   11  C   UNL     1      -2.900  -7.884  -6.850  1.00  0.00     0.000 C 
BRANCH  11  12
HETATM   12  C   UNL     1      -1.917  -7.016  -6.056  1.00  0.00     0.000 C 
BRANCH  12  13
HETATM   13  C   UNL     1      -2.030  -7.291  -4.552  1.00  0.00     0.000 C 
BRANCH  13  14
HETATM   14  C   UNL     1      -3.399  -7.888  -4.203  1.00  0.00     0.000 C 
BRANCH  14  15
HETATM   15  C   UNL     1      -3.308  -8.792  -2.968  1.00  0.00     0.000 C 
BRANCH  15  16
HETATM   16  C   UNL     1      -4.699  -9.253  -2.520  1.00  0.00     0.000 C 
BRANCH  16  17
HETATM   17  C   UNL     1      -4.618 -10.575  -1.747  1.00  0.00    -0.000 C 
BRANCH  17  18
HETATM   18  C   UNL     1      -3.167 -11.055  -1.630  1.00  0.00    -0.005 C 
HETATM   19  C   UNL     1      -2.950 -11.846  -0.343  1.00  0.00     0.005 C 
ENDBRANCH  17  18
ENDBRANCH  16  17
ENDBRANCH  15  16
ENDBRANCH  14  15
ENDBRANCH  13  14
ENDBRANCH  12  13
ENDBRANCH  11  12
ENDBRANCH  10  11
ENDBRANCH   9  10
ENDBRANCH   8   9
ENDBRANCH   7   8
ENDBRANCH   6   7
ENDBRANCH   5   6
ENDBRANCH   3   5
ENDBRANCH   1   3
TORSDOF 15
ENDMDL
MODEL 4
REMARK VINA RESULT:      -5.4      5.374     13.712
REMARK  15 active torsions:
REMARK  status: ('A' for Active; 'I' for Inactive)
REMARK    1  A    between atoms: O_1  and  C_18 
REMARK    2  A    between atoms: C_3  and  C_4 
REMARK    3  A    between atoms: C_3  and  C_5 
REMARK    4  A    between atoms: C_4  and  C_6 
REMARK    5  A    between atoms: C_5  and  C_7 
REMARK    6  A    between atoms: C_6  and  C_8 
REMARK    7  A    between atoms: C_7  and  C_9 
REMARK    8  A    between atoms: C_8  and  C_10 
REMARK    9  A    between atoms: C_9  and  C_11 
REMARK   10  A    between atoms: C_10  and  C_12 
REMARK   11  A    between atoms: C_11  and  C_13 
REMARK   12  A    between atoms: C_12  and  C_14 
REMARK   13  A    between atoms: C_13  and  C_15 
REMARK   14  A    between atoms: C_14  and  C_16 
REMARK   15  A    between atoms: C_16  and  C_18 
ROOT
HETATM    1  O   UNL     1      -1.875  -7.039 -18.322  1.00  0.00    -0.776 OA
HETATM    2  H   UNL     1      -1.951  -7.345 -19.237  1.00  0.00     0.167 HD
ENDROOT
BRANCH   1   3
HETATM    3  C   UNL     1      -2.182  -7.844 -17.283  1.00  0.00     0.139 C 
HETATM    4  O   UNL     1      -2.081  -9.057 -17.403  1.00  0.00    -0.650 OA
BRANCH   3   5
HETATM    5  C   UNL     1      -2.645  -7.224 -15.990  1.00  0.00     0.110 C 
BRANCH   5   6
HETATM    6  C   UNL     1      -1.813  -7.668 -14.777  1.00  0.00     0.010 C 
BRANCH   6   7
HETATM    7  C   UNL     1      -2.715  -8.205 -13.660  1.00  0.00     0.001 C 
BRANCH   7   8
HETATM    8  C   UNL     1      -1.923  -8.404 -12.361  1.00  0.00     0.000 C 
BRANCH   8   9
HETATM    9  C   UNL     1      -2.547  -7.609 -11.208  1.00  0.00     0.000 C 
BRANCH   9  10
HETATM   10  C   UNL     1      -1.840  -7.916  -9.883  1.00  0.00     0.000 C 
BRANCH  10  11
HETATM   11  C   UNL     1      -2.821  -7.846  -8.707  1.00  0.00     0.000 C 
BRANCH  11  12
HETATM   12  C   UNL     1      -2.155  -8.309  -7.405  1.00  0.00     0.000 C 
BRANCH  12  13
HETATM   13  C   UNL     1      -2.710  -7.541  -6.200  1.00  0.00     0.000 C 
BRANCH  13  14
HETATM   14  C   UNL     1      -1.744  -7.610  -5.011  1.00  0.00     0.000 C 
BRANCH  14  15
HETATM   15  C   UNL     1      -2.462  -8.093  -3.746  1.00  0.00     0.000 C 
BRANCH  15  16
HETATM   16  C   UNL     1      -3.983  -8.084  -3.938  1.00  0.00     0.000 C 
BRANCH  16  17
HETATM   17  C   UNL     1      -4.690  -8.772  -2.765  1.00  0.00    -0.000 C 
BRANCH  17  18
HETATM   18  C   UNL     1      -3.832  -8.716  -1.496  1.00  0.00    -0.005 C 
HETATM   19  C   UNL     1      -3.579 -10.115  -0.941  1.00  0.00     0.005 C 
ENDBRANCH  17  18
ENDBRANCH  16  17
ENDBRANCH  15  16
ENDBRANCH  14  15
ENDBRANCH  13  14
ENDBRANCH  12  13
ENDBRANCH  11  12
ENDBRANCH  10  11
ENDBRANCH   9  10
ENDBRANCH   8   9
ENDBRANCH   7   8
ENDBRANCH   6   7
ENDBRANCH   5   6
ENDBRANCH   3   5
ENDBRANCH   1   3
TORSDOF 15
ENDMDL
MODEL 5
REMARK VINA RESULT:      -5.4      4.823     10.679
REMARK  15 active torsions:
REMARK  status: ('A' for Active; 'I' for Inactive)
REMARK    1  A    between atoms: O_1  and  C_18 
REMARK    2  A    between atoms: C_3  and  C_4 
REMARK    3  A    between atoms: C_3  and  C_5 
REMARK    4  A    between atoms: C_4  and  C_6 
REMARK    5  A    between atoms: C_5  and  C_7 
REMARK    6  A    between atoms: C_6  and  C_8 
REMARK    7  A    between atoms: C_7  and  C_9 
REMARK    8  A    between atoms: C_8  and  C_10 
REMARK    9  A    between atoms: C_9  and  C_11 
REMARK   10  A    between atoms: C_10  and  C_12 
REMARK   11  A    between atoms: C_11  and  C_13 
REMARK   12  A    between atoms: C_12  and  C_14 
REMARK   13  A    between atoms: C_13  and  C_15 
REMARK   14  A    between atoms: C_14  and  C_16 
REMARK   15  A    between atoms: C_16  and  C_18 
ROOT
HETATM    1  O   UNL     1      -1.567  -7.161 -23.717  1.00  0.00    -0.776 OA
HETATM    2  H   UNL     1      -1.152  -6.530 -23.113  1.00  0.00     0.167 HD
ENDROOT
BRANCH   1   3
HETATM    3  C   UNL     1      -2.752  -7.739 -23.426  1.00  0.00     0.139 C 
HETATM    4  O   UNL     1      -3.556  -7.960 -24.321  1.00  0.00    -0.650 OA
BRANCH   3   5
HETATM    5  C   UNL     1      -3.057  -8.101 -21.996  1.00  0.00     0.110 C 
BRANCH   5   6
HETATM    6  C   UNL     1      -1.922  -7.734 -21.026  1.00  0.00     0.010 C 
BRANCH   6   7
HETATM    7  C   UNL     1      -2.467  -7.001 -19.795  1.00  0.00     0.001 C 
BRANCH   7   8
HETATM    8  C   UNL     1      -3.784  -7.628 -19.320  1.00  0.00     0.000 C 
BRANCH   8   9
HETATM    9  C   UNL     1      -3.576  -8.438 -18.035  1.00  0.00     0.000 C 
BRANCH   9  10
HETATM   10  C   UNL     1      -2.302  -7.996 -17.306  1.00  0.00     0.000 C 
BRANCH  10  11
HETATM   11  C   UNL     1      -2.628  -7.017 -16.172  1.00  0.00     0.000 C 
BRANCH  11  12
HETATM   12  C   UNL     1      -2.412  -7.669 -14.802  1.00  0.00     0.000 C 
BRANCH  12  13
HETATM   13  C   UNL     1      -3.748  -7.906 -14.088  1.00  0.00     0.000 C 
BRANCH  13  14
HETATM   14  C   UNL     1      -3.536  -8.143 -12.588  1.00  0.00     0.000 C 
BRANCH  14  15
HETATM   15  C   UNL     1      -2.091  -7.833 -12.180  1.00  0.00     0.000 C 
BRANCH  15  16
HETATM   16  C   UNL     1      -2.041  -7.137 -10.816  1.00  0.00     0.000 C 
BRANCH  16  17
HETATM   17  C   UNL     1      -3.388  -7.248 -10.092  1.00  0.00    -0.000 C 
BRANCH  17  18
HETATM   18  C   UNL     1      -3.351  -8.350  -9.027  1.00  0.00    -0.005 C 
HETATM   19  C   UNL     1      -4.695  -8.473  -8.315  1.00  0.00     0.005 C 
ENDBRANCH  17  18
ENDBRANCH  16  17
ENDBRANCH  15  16
ENDBRANCH  14  15
ENDBRANCH  13  14
ENDBRANCH  12  13
ENDBRANCH  11  12
ENDBRANCH  10  11
ENDBRANCH   9  10
ENDBRANCH   8   9
ENDBRANCH   7   8
ENDBRANCH   6   7
ENDBRANCH   5   6
ENDBRANCH   3   5
ENDBRANCH   1   3
TORSDOF 15
ENDMDL
MODEL 6
REMARK VINA RESULT:      -4.9      5.734     10.898
REMARK  15 active torsions:
REMARK  status: ('A' for Active; 'I' for Inactive)
REMARK    1  A    between atoms: O_1  and  C_18 
REMARK    2  A    between atoms: C_3  and  C_4 
REMARK    3  A    between atoms: C_3  and  C_5 
REMARK    4  A    between atoms: C_4  and  C_6 
REMARK    5  A    between atoms: C_5  and  C_7 
REMARK    6  A    between atoms: C_6  and  C_8 
REMARK    7  A    between atoms: C_7  and  C_9 
REMARK    8  A    between atoms: C_8  and  C_10 
REMARK    9  A    between atoms: C_9  and  C_11 
REMARK   10  A    between atoms: C_10  and  C_12 
REMARK   11  A    between atoms: C_11  and  C_13 
REMARK   12  A    between atoms: C_12  and  C_14 
REMARK   13  A    between atoms: C_13  and  C_15 
REMARK   14  A    between atoms: C_14  and  C_16 
REMARK   15  A    between atoms: C_16  and  C_18 
ROOT
HETATM    1  O   UNL     1      -1.979  -3.588 -26.075  1.00  0.00    -0.776 OA
HETATM    2  H   UNL     1      -1.351  -4.299 -25.887  1.00  0.00     0.167 HD
ENDROOT
BRANCH   1   3
HETATM    3  C   UNL     1      -3.306  -3.823 -26.155  1.00  0.00     0.139 C 
HETATM    4  O   UNL     1      -4.093  -2.891 -26.072  1.00  0.00    -0.650 OA
BRANCH   3   5
HETATM    5  C   UNL     1      -3.787  -5.238 -26.347  1.00  0.00     0.110 C 
BRANCH   5   6
HETATM    6  C   UNL     1      -2.844  -6.082 -27.219  1.00  0.00     0.010 C 
BRANCH   6   7
HETATM    7  C   UNL     1      -2.509  -7.412 -26.536  1.00  0.00     0.001 C 
BRANCH   7   8
HETATM    8  C   UNL     1      -1.338  -7.249 -25.559  1.00  0.00     0.000 C 
BRANCH   8   9
HETATM    9  C   UNL     1      -1.841  -7.088 -24.119  1.00  0.00     0.000 C 
BRANCH   9  10
HETATM   10  C   UNL     1      -2.919  -8.128 -23.793  1.00  0.00     0.000 C 
BRANCH  10  11
HETATM   11  C   UNL     1      -3.248  -8.129 -22.296  1.00  0.00     0.000 C 
BRANCH  11  12
HETATM   12  C   UNL     1      -1.970  -8.068 -21.451  1.00  0.00     0.000 C 
BRANCH  12  13
HETATM   13  C   UNL     1      -2.176  -7.200 -20.204  1.00  0.00     0.000 C 
BRANCH  13  14
HETATM   14  C   UNL     1      -3.598  -7.359 -19.651  1.00  0.00     0.000 C 
BRANCH  14  15
HETATM   15  C   UNL     1      -3.617  -8.303 -18.443  1.00  0.00     0.000 C 
BRANCH  15  16
HETATM   16  C   UNL     1      -2.536  -7.918 -17.427  1.00  0.00     0.000 C 
BRANCH  16  17
HETATM   17  C   UNL     1      -3.155  -7.600 -16.060  1.00  0.00    -0.000 C 
BRANCH  17  18
HETATM   18  C   UNL     1      -2.108  -7.017 -15.104  1.00  0.00    -0.005 C 
HETATM   19  C   UNL     1      -1.821  -7.975 -13.950  1.00  0.00     0.005 C 
ENDBRANCH  17  18
ENDBRANCH  16  17
ENDBRANCH  15  16
ENDBRANCH  14  15
ENDBRANCH  13  14
ENDBRANCH  12  13
ENDBRANCH  11  12
ENDBRANCH  10  11
ENDBRANCH   9  10
ENDBRANCH   8   9
ENDBRANCH   7   8
ENDBRANCH   6   7
ENDBRANCH   5   6
ENDBRANCH   3   5
ENDBRANCH   1   3
TORSDOF 15
ENDMDL
MODEL 7
REMARK VINA RESULT:      -4.8      2.682      5.618
REMARK  15 active torsions:
REMARK  status: ('A' for Active; 'I' for Inactive)
REMARK    1  A    between atoms: O_1  and  C_18 
REMARK    2  A    between atoms: C_3  and  C_4 
REMARK    3  A    between atoms: C_3  and  C_5 
REMARK    4  A    between atoms: C_4  and  C_6 
REMARK    5  A    between atoms: C_5  and  C_7 
REMARK    6  A    between atoms: C_6  and  C_8 
REMARK    7  A    between atoms: C_7  and  C_9 
REMARK    8  A    between atoms: C_8  and  C_10 
REMARK    9  A    between atoms: C_9  and  C_11 
REMARK   10  A    between atoms: C_10  and  C_12 
REMARK   11  A    between atoms: C_11  and  C_13 
REMARK   12  A    between atoms: C_12  and  C_14 
REMARK   13  A    between atoms: C_13  and  C_15 
REMARK   14  A    between atoms: C_14  and  C_16 
REMARK   15  A    between atoms: C_16  and  C_18 
ROOT
HETATM    1  O   UNL     1      -3.817  -7.374 -15.143  1.00  0.00    -0.776 OA
HETATM    2  H   UNL     1      -4.335  -6.614 -14.843  1.00  0.00     0.167 HD
ENDROOT
BRANCH   1   3
HETATM    3  C   UNL     1      -2.519  -7.247 -15.492  1.00  0.00     0.139 C 
HETATM    4  O   UNL     1      -1.819  -6.414 -14.933  1.00  0.00    -0.650 OA
BRANCH   3   5
HETATM    5  C   UNL     1      -1.960  -8.141 -16.568  1.00  0.00     0.110 C 
BRANCH   5   6
HETATM    6  C   UNL     1      -2.791  -8.122 -17.860  1.00  0.00     0.010 C 
BRANCH   6   7
HETATM    7  C   UNL     1      -2.124  -7.251 -18.930  1.00  0.00     0.001 C 
BRANCH   7   8
HETATM    8  C   UNL     1      -1.757  -8.081 -20.166  1.00  0.00     0.000 C 
BRANCH   8   9
HETATM    9  C   UNL     1      -2.474  -7.555 -21.415  1.00  0.00     0.000 C 
BRANCH   9  10
HETATM   10  C   UNL     1      -2.210  -8.461 -22.623  1.00  0.00     0.000 C 
BRANCH  10  11
HETATM   11  C   UNL     1      -2.851  -7.886 -23.892  1.00  0.00     0.000 C 
BRANCH  11  12
HETATM   12  C   UNL     1      -1.793  -7.610 -24.967  1.00  0.00     0.000 C 
BRANCH  12  13
HETATM   13  C   UNL     1      -2.340  -6.672 -26.049  1.00  0.00     0.000 C 
BRANCH  13  14
HETATM   14  C   UNL     1      -3.870  -6.744 -26.118  1.00  0.00     0.000 C 
BRANCH  14  15
HETATM   15  C   UNL     1      -4.407  -5.938 -27.307  1.00  0.00     0.000 C 
BRANCH  15  16
HETATM   16  C   UNL     1      -3.757  -4.551 -27.369  1.00  0.00     0.000 C 
BRANCH  16  17
HETATM   17  C   UNL     1      -4.316  -3.633 -26.275  1.00  0.00    -0.000 C 
BRANCH  17  18
HETATM   18  C   UNL     1      -3.283  -2.578 -25.863  1.00  0.00    -0.005 C 
HETATM   19  C   UNL     1      -1.940  -2.826 -26.543  1.00  0.00     0.005 C 
ENDBRANCH  17  18
ENDBRANCH  16  17
ENDBRANCH  15  16
ENDBRANCH  14  15
ENDBRANCH  13  14
ENDBRANCH  12  13
ENDBRANCH  11  12
ENDBRANCH  10  11
ENDBRANCH   9  10
ENDBRANCH   8   9
ENDBRANCH   7   8
ENDBRANCH   6   7
ENDBRANCH   5   6
ENDBRANCH   3   5
ENDBRANCH   1   3
TORSDOF 15
ENDMDL
MODEL 8
REMARK VINA RESULT:      -4.7     40.386     41.998
REMARK  15 active torsions:
REMARK  status: ('A' for Active; 'I' for Inactive)
REMARK    1  A    between atoms: O_1  and  C_18 
REMARK    2  A    between atoms: C_3  and  C_4 
REMARK    3  A    between atoms: C_3  and  C_5 
REMARK    4  A    between atoms: C_4  and  C_6 
REMARK    5  A    between atoms: C_5  and  C_7 
REMARK    6  A    between atoms: C_6  and  C_8 
REMARK    7  A    between atoms: C_7  and  C_9 
REMARK    8  A    between atoms: C_8  and  C_10 
REMARK    9  A    between atoms: C_9  and  C_11 
REMARK   10  A    between atoms: C_10  and  C_12 
REMARK   11  A    between atoms: C_11  and  C_13 
REMARK   12  A    between atoms: C_12  and  C_14 
REMARK   13  A    between atoms: C_13  and  C_15 
REMARK   14  A    between atoms: C_14  and  C_16 
REMARK   15  A    between atoms: C_16  and  C_18 
ROOT
HETATM    1  O   UNL     1     -23.936  25.339 -13.501  1.00  0.00    -0.776 OA
HETATM    2  H   UNL     1     -24.133  24.428 -13.244  1.00  0.00     0.167 HD
ENDROOT
BRANCH   1   3
HETATM    3  C   UNL     1     -22.665  25.781 -13.613  1.00  0.00     0.139 C 
HETATM    4  O   UNL     1     -21.843  25.116 -14.227  1.00  0.00    -0.650 OA
BRANCH   3   5
HETATM    5  C   UNL     1     -22.289  27.093 -12.974  1.00  0.00     0.110 C 
BRANCH   5   6
HETATM    6  C   UNL     1     -21.298  27.911 -13.816  1.00  0.00     0.010 C 
BRANCH   6   7
HETATM    7  C   UNL     1     -20.539  28.919 -12.945  1.00  0.00     0.001 C 
BRANCH   7   8
HETATM    8  C   UNL     1     -20.184  30.179 -13.744  1.00  0.00     0.000 C 
BRANCH   8   9
HETATM    9  C   UNL     1     -19.713  31.305 -12.816  1.00  0.00     0.000 C 
BRANCH   9  10
HETATM   10  C   UNL     1     -18.938  30.743 -11.619  1.00  0.00     0.000 C 
BRANCH  10  11
HETATM   11  C   UNL     1     -19.015  31.694 -10.418  1.00  0.00     0.000 C 
BRANCH  11  12
HETATM   12  C   UNL     1     -20.456  32.162 -10.178  1.00  0.00     0.000 C 
BRANCH  12  13
HETATM   13  C   UNL     1     -21.248  31.119  -9.382  1.00  0.00     0.000 C 
BRANCH  13  14
HETATM   14  C   UNL     1     -20.448  30.628  -8.169  1.00  0.00     0.000 C 
BRANCH  14  15
HETATM   15  C   UNL     1     -20.383  29.096  -8.135  1.00  0.00     0.000 C 
BRANCH  15  16
HETATM   16  C   UNL     1     -21.604  28.479  -8.826  1.00  0.00     0.000 C 
BRANCH  16  17
HETATM   17  C   UNL     1     -21.188  27.341  -9.765  1.00  0.00    -0.000 C 
BRANCH  17  18
HETATM   18  C   UNL     1     -21.748  25.997  -9.284  1.00  0.00    -0.005 C 
HETATM   19  C   UNL     1     -23.208  26.129  -8.860  1.00  0.00     0.005 C 
ENDBRANCH  17  18
ENDBRANCH  16  17
ENDBRANCH  15  16
ENDBRANCH  14  15
ENDBRANCH  13  14
ENDBRANCH  12  13
ENDBRANCH  11  12
ENDBRANCH  10  11
ENDBRANCH   9  10
ENDBRANCH   8   9
ENDBRANCH   7   8
ENDBRANCH   6   7
ENDBRANCH   5   6
ENDBRANCH   3   5
ENDBRANCH   1   3
TORSDOF 15
ENDMDL
MODEL 9
REMARK VINA RESULT:      -4.5     33.289     34.301
REMARK  15 active torsions:
REMARK  status: ('A' for Active; 'I' for Inactive)
REMARK    1  A    between atoms: O_1  and  C_18 
REMARK    2  A    between atoms: C_3  and  C_4 
REMARK    3  A    between atoms: C_3  and  C_5 
REMARK    4  A    between atoms: C_4  and  C_6 
REMARK    5  A    between atoms: C_5  and  C_7 
REMARK    6  A    between atoms: C_6  and  C_8 
REMARK    7  A    between atoms: C_7  and  C_9 
REMARK    8  A    between atoms: C_8  and  C_10 
REMARK    9  A    between atoms: C_9  and  C_11 
REMARK   10  A    between atoms: C_10  and  C_12 
REMARK   11  A    between atoms: C_11  and  C_13 
REMARK   12  A    between atoms: C_12  and  C_14 
REMARK   13  A    between atoms: C_13  and  C_15 
REMARK   14  A    between atoms: C_14  and  C_16 
REMARK   15  A    between atoms: C_16  and  C_18 
ROOT
HETATM    1  O   UNL     1     -37.282  -3.634 -10.875  1.00  0.00    -0.776 OA
HETATM    2  H   UNL     1     -36.547  -3.008 -10.824  1.00  0.00     0.167 HD
ENDROOT
BRANCH   1   3
HETATM    3  C   UNL     1     -37.430  -4.622  -9.967  1.00  0.00     0.139 C 
HETATM    4  O   UNL     1     -37.683  -4.344  -8.804  1.00  0.00    -0.650 OA
BRANCH   3   5
HETATM    5  C   UNL     1     -37.280  -6.053 -10.414  1.00  0.00     0.110 C 
BRANCH   5   6
HETATM    6  C   UNL     1     -36.135  -6.790  -9.702  1.00  0.00     0.010 C 
BRANCH   6   7
HETATM    7  C   UNL     1     -35.120  -7.335 -10.713  1.00  0.00     0.001 C 
BRANCH   7   8
HETATM    8  C   UNL     1     -35.764  -7.521 -12.093  1.00  0.00     0.000 C 
BRANCH   8   9
HETATM    9  C   UNL     1     -35.103  -8.675 -12.857  1.00  0.00     0.000 C 
BRANCH   9  10
HETATM   10  C   UNL     1     -35.397  -8.579 -14.359  1.00  0.00     0.000 C 
BRANCH  10  11
HETATM   11  C   UNL     1     -34.353  -7.709 -15.069  1.00  0.00     0.000 C 
BRANCH  11  12
HETATM   12  C   UNL     1     -34.986  -6.917 -16.220  1.00  0.00     0.000 C 
BRANCH  12  13
HETATM   13  C   UNL     1     -36.169  -6.078 -15.725  1.00  0.00     0.000 C 
BRANCH  13  14
HETATM   14  C   UNL     1     -37.338  -6.136 -16.717  1.00  0.00     0.000 C 
BRANCH  14  15
HETATM   15  C   UNL     1     -37.072  -7.166 -17.821  1.00  0.00     0.000 C 
BRANCH  15  16
HETATM   16  C   UNL     1     -36.712  -6.475 -19.142  1.00  0.00     0.000 C 
BRANCH  16  17
HETATM   17  C   UNL     1     -37.338  -5.078 -19.221  1.00  0.00    -0.000 C 
BRANCH  17  18
HETATM   18  C   UNL     1     -38.325  -4.983 -20.390  1.00  0.00    -0.005 C 
HETATM   19  C   UNL     1     -37.738  -5.596 -21.658  1.00  0.00     0.005 C 
ENDBRANCH  17  18
ENDBRANCH  16  17
ENDBRANCH  15  16
ENDBRANCH  14  15
ENDBRANCH  13  14
ENDBRANCH  12  13
ENDBRANCH  11  12
ENDBRANCH  10  11
ENDBRANCH   9  10
ENDBRANCH   8   9
ENDBRANCH   7   8
ENDBRANCH   6   7
ENDBRANCH   5   6
ENDBRANCH   3   5
ENDBRANCH   1   3
TORSDOF 15
ENDMDL
MODEL 10
REMARK VINA RESULT:      -4.5     33.479     34.417
REMARK  15 active torsions:
REMARK  status: ('A' for Active; 'I' for Inactive)
REMARK    1  A    between atoms: O_1  and  C_18 
REMARK    2  A    between atoms: C_3  and  C_4 
REMARK    3  A    between atoms: C_3  and  C_5 
REMARK    4  A    between atoms: C_4  and  C_6 
REMARK    5  A    between atoms: C_5  and  C_7 
REMARK    6  A    between atoms: C_6  and  C_8 
REMARK    7  A    between atoms: C_7  and  C_9 
REMARK    8  A    between atoms: C_8  and  C_10 
REMARK    9  A    between atoms: C_9  and  C_11 
REMARK   10  A    between atoms: C_10  and  C_12 
REMARK   11  A    between atoms: C_11  and  C_13 
REMARK   12  A    between atoms: C_12  and  C_14 
REMARK   13  A    between atoms: C_13  and  C_15 
REMARK   14  A    between atoms: C_14  and  C_16 
REMARK   15  A    between atoms: C_16  and  C_18 
ROOT
HETATM    1  O   UNL     1     -37.258  -3.479 -10.925  1.00  0.00    -0.776 OA
HETATM    2  H   UNL     1     -36.480  -2.923 -10.777  1.00  0.00     0.167 HD
ENDROOT
BRANCH   1   3
HETATM    3  C   UNL     1     -37.512  -4.554 -10.149  1.00  0.00     0.139 C 
HETATM    4  O   UNL     1     -37.693  -4.408  -8.949  1.00  0.00    -0.650 OA
BRANCH   3   5
HETATM    5  C   UNL     1     -37.569  -5.918 -10.787  1.00  0.00     0.110 C 
BRANCH   5   6
HETATM    6  C   UNL     1     -36.394  -6.822 -10.384  1.00  0.00     0.010 C 
BRANCH   6   7
HETATM    7  C   UNL     1     -35.576  -7.241 -11.610  1.00  0.00     0.001 C 
BRANCH   7   8
HETATM    8  C   UNL     1     -36.303  -6.870 -12.909  1.00  0.00     0.000 C 
BRANCH   8   9
HETATM    9  C   UNL     1     -36.139  -7.970 -13.965  1.00  0.00     0.000 C 
BRANCH   9  10
HETATM   10  C   UNL     1     -36.629  -7.492 -15.337  1.00  0.00     0.000 C 
BRANCH  10  11
HETATM   11  C   UNL     1     -35.969  -6.163 -15.725  1.00  0.00     0.000 C 
BRANCH  11  12
HETATM   12  C   UNL     1     -37.013  -5.150 -16.209  1.00  0.00     0.000 C 
BRANCH  12  13
HETATM   13  C   UNL     1     -37.927  -5.768 -17.273  1.00  0.00     0.000 C 
BRANCH  13  14
HETATM   14  C   UNL     1     -37.532  -5.298 -18.678  1.00  0.00     0.000 C 
BRANCH  14  15
HETATM   15  C   UNL     1     -38.113  -6.225 -19.753  1.00  0.00     0.000 C 
BRANCH  15  16
HETATM   16  C   UNL     1     -37.152  -7.378 -20.062  1.00  0.00     0.000 C 
BRANCH  16  17
HETATM   17  C   UNL     1     -35.695  -6.958 -19.828  1.00  0.00    -0.000 C 
BRANCH  17  18
HETATM   18  C   UNL     1     -34.889  -7.021 -21.130  1.00  0.00    -0.005 C 
HETATM   19  C   UNL     1     -35.176  -8.310 -21.895  1.00  0.00     0.005 C 
ENDBRANCH  17  18
ENDBRANCH  16  17
ENDBRANCH  15  16
ENDBRANCH  14  15
ENDBRANCH  13  14
ENDBRANCH  12  13
ENDBRANCH  11  12
ENDBRANCH  10  11
ENDBRANCH   9  10
ENDBRANCH   8   9
ENDBRANCH   7   8
ENDBRANCH   6   7
ENDBRANCH   5   6
ENDBRANCH   3   5
ENDBRANCH   1   3
TORSDOF 15
ENDMDL
MODEL 11
REMARK VINA RESULT:      -4.4     33.515     35.543
REMARK  15 active torsions:
REMARK  status: ('A' for Active; 'I' for Inactive)
REMARK    1  A    between atoms: O_1  and  C_18 
REMARK    2  A    between atoms: C_3  and  C_4 
REMARK    3  A    between atoms: C_3  and  C_5 
REMARK    4  A    between atoms: C_4  and  C_6 
REMARK    5  A    between atoms: C_5  and  C_7 
REMARK    6  A    between atoms: C_6  and  C_8 
REMARK    7  A    between atoms: C_7  and  C_9 
REMARK    8  A    between atoms: C_8  and  C_10 
REMARK    9  A    between atoms: C_9  and  C_11 
REMARK   10  A    between atoms: C_10  and  C_12 
REMARK   11  A    between atoms: C_11  and  C_13 
REMARK   12  A    between atoms: C_12  and  C_14 
REMARK   13  A    between atoms: C_13  and  C_15 
REMARK   14  A    between atoms: C_14  and  C_16 
REMARK   15  A    between atoms: C_16  and  C_18 
ROOT
HETATM    1  O   UNL     1     -33.479  -8.861 -19.312  1.00  0.00    -0.776 OA
HETATM    2  H   UNL     1     -32.973  -9.565 -18.882  1.00  0.00     0.167 HD
ENDROOT
BRANCH   1   3
HETATM    3  C   UNL     1     -34.381  -8.124 -18.630  1.00  0.00     0.139 C 
HETATM    4  O   UNL     1     -34.067  -7.613 -17.565  1.00  0.00    -0.650 OA
BRANCH   3   5
HETATM    5  C   UNL     1     -35.763  -7.946 -19.204  1.00  0.00     0.110 C 
BRANCH   5   6
HETATM    6  C   UNL     1     -35.868  -6.753 -20.167  1.00  0.00     0.010 C 
BRANCH   6   7
HETATM    7  C   UNL     1     -37.245  -6.088 -20.069  1.00  0.00     0.001 C 
BRANCH   7   8
HETATM    8  C   UNL     1     -37.802  -6.182 -18.643  1.00  0.00     0.000 C 
BRANCH   8   9
HETATM    9  C   UNL     1     -37.724  -4.827 -17.931  1.00  0.00     0.000 C 
BRANCH   9  10
HETATM   10  C   UNL     1     -37.674  -5.007 -16.409  1.00  0.00     0.000 C 
BRANCH  10  11
HETATM   11  C   UNL     1     -36.399  -5.746 -15.984  1.00  0.00     0.000 C 
BRANCH  11  12
HETATM   12  C   UNL     1     -36.573  -6.397 -14.607  1.00  0.00     0.000 C 
BRANCH  12  13
HETATM   13  C   UNL     1     -37.661  -5.686 -13.795  1.00  0.00     0.000 C 
BRANCH  13  14
HETATM   14  C   UNL     1     -38.030  -6.494 -12.544  1.00  0.00     0.000 C 
BRANCH  14  15
HETATM   15  C   UNL     1     -36.775  -6.923 -11.776  1.00  0.00     0.000 C 
BRANCH  15  16
HETATM   16  C   UNL     1     -36.450  -5.929 -10.655  1.00  0.00     0.000 C 
BRANCH  16  17
HETATM   17  C   UNL     1     -37.731  -5.312 -10.079  1.00  0.00    -0.000 C 
BRANCH  17  18
HETATM   18  C   UNL     1     -37.577  -5.026  -8.580  1.00  0.00    -0.005 C 
HETATM   19  C   UNL     1     -37.807  -6.287  -7.752  1.00  0.00     0.005 C 
ENDBRANCH  17  18
ENDBRANCH  16  17
ENDBRANCH  15  16
ENDBRANCH  14  15
ENDBRANCH  13  14
ENDBRANCH  12  13
ENDBRANCH  11  12
ENDBRANCH  10  11
ENDBRANCH   9  10
ENDBRANCH   8   9
ENDBRANCH   7   8
ENDBRANCH   6   7
ENDBRANCH   5   6
ENDBRANCH   3   5
ENDBRANCH   1   3
TORSDOF 15
ENDMDL
MODEL 12
REMARK VINA RESULT:      -4.4     33.376     35.431
REMARK  15 active torsions:
REMARK  status: ('A' for Active; 'I' for Inactive)
REMARK    1  A    between atoms: O_1  and  C_18 
REMARK    2  A    between atoms: C_3  and  C_4 
REMARK    3  A    between atoms: C_3  and  C_5 
REMARK    4  A    between atoms: C_4  and  C_6 
REMARK    5  A    between atoms: C_5  and  C_7 
REMARK    6  A    between atoms: C_6  and  C_8 
REMARK    7  A    between atoms: C_7  and  C_9 
REMARK    8  A    between atoms: C_8  and  C_10 
REMARK    9  A    between atoms: C_9  and  C_11 
REMARK   10  A    between atoms: C_10  and  C_12 
REMARK   11  A    between atoms: C_11  and  C_13 
REMARK   12  A    between atoms: C_12  and  C_14 
REMARK   13  A    between atoms: C_13  and  C_15 
REMARK   14  A    between atoms: C_14  and  C_16 
REMARK   15  A    between atoms: C_16  and  C_18 
ROOT
HETATM    1  O   UNL     1     -36.064  -8.695 -11.974  1.00  0.00    -0.776 OA
HETATM    2  H   UNL     1     -37.010  -8.721 -12.173  1.00  0.00     0.167 HD
ENDROOT
BRANCH   1   3
HETATM    3  C   UNL     1     -35.170  -8.217 -12.865  1.00  0.00     0.139 C 
HETATM    4  O   UNL     1     -34.183  -7.612 -12.471  1.00  0.00    -0.650 OA
BRANCH   3   5
HETATM    5  C   UNL     1     -35.411  -8.444 -14.335  1.00  0.00     0.110 C 
BRANCH   5   6
HETATM    6  C   UNL     1     -34.656  -7.450 -15.231  1.00  0.00     0.010 C 
BRANCH   6   7
HETATM    7  C   UNL     1     -35.505  -7.048 -16.442  1.00  0.00     0.001 C 
BRANCH   7   8
HETATM    8  C   UNL     1     -36.962  -7.492 -16.265  1.00  0.00     0.000 C 
BRANCH   8   9
HETATM    9  C   UNL     1     -37.879  -6.288 -16.017  1.00  0.00     0.000 C 
BRANCH   9  10
HETATM   10  C   UNL     1     -38.321  -6.226 -14.551  1.00  0.00     0.000 C 
BRANCH  10  11
HETATM   11  C   UNL     1     -37.685  -5.028 -13.835  1.00  0.00     0.000 C 
BRANCH  11  12
HETATM   12  C   UNL     1     -37.349  -5.371 -12.379  1.00  0.00     0.000 C 
BRANCH  12  13
HETATM   13  C   UNL     1     -37.695  -4.207 -11.445  1.00  0.00     0.000 C 
BRANCH  13  14
HETATM   14  C   UNL     1     -37.670  -4.653  -9.977  1.00  0.00     0.000 C 
BRANCH  14  15
HETATM   15  C   UNL     1     -38.279  -6.051  -9.817  1.00  0.00     0.000 C 
BRANCH  15  16
HETATM   16  C   UNL     1     -37.895  -6.666  -8.466  1.00  0.00     0.000 C 
BRANCH  16  17
HETATM   17  C   UNL     1     -36.960  -7.867  -8.655  1.00  0.00    -0.000 C 
BRANCH  17  18
HETATM   18  C   UNL     1     -35.494  -7.422  -8.699  1.00  0.00    -0.005 C 
HETATM   19  C   UNL     1     -34.863  -7.462  -7.310  1.00  0.00     0.005 C 
ENDBRANCH  17  18
ENDBRANCH  16  17
ENDBRANCH  15  16
ENDBRANCH  14  15
ENDBRANCH  13  14
ENDBRANCH  12  13
ENDBRANCH  11  12
ENDBRANCH  10  11
ENDBRANCH   9  10
ENDBRANCH   8   9
ENDBRANCH   7   8
ENDBRANCH   6   7
ENDBRANCH   5   6
ENDBRANCH   3   5
ENDBRANCH   1   3
TORSDOF 15
ENDMDL
MODEL 13
REMARK VINA RESULT:      -4.3     57.713     58.796
REMARK  15 active torsions:
REMARK  status: ('A' for Active; 'I' for Inactive)
REMARK    1  A    between atoms: O_1  and  C_18 
REMARK    2  A    between atoms: C_3  and  C_4 
REMARK    3  A    between atoms: C_3  and  C_5 
REMARK    4  A    between atoms: C_4  and  C_6 
REMARK    5  A    between atoms: C_5  and  C_7 
REMARK    6  A    between atoms: C_6  and  C_8 
REMARK    7  A    between atoms: C_7  and  C_9 
REMARK    8  A    between atoms: C_8  and  C_10 
REMARK    9  A    between atoms: C_9  and  C_11 
REMARK   10  A    between atoms: C_10  and  C_12 
REMARK   11  A    between atoms: C_11  and  C_13 
REMARK   12  A    between atoms: C_12  and  C_14 
REMARK   13  A    between atoms: C_13  and  C_15 
REMARK   14  A    between atoms: C_14  and  C_16 
REMARK   15  A    between atoms: C_16  and  C_18 
ROOT
HETATM    1  O   UNL     1     -54.871  19.624 -12.904  1.00  0.00    -0.776 OA
HETATM    2  H   UNL     1     -55.674  19.525 -13.434  1.00  0.00     0.167 HD
ENDROOT
BRANCH   1   3
HETATM    3  C   UNL     1     -54.533  20.809 -12.352  1.00  0.00     0.139 C 
HETATM    4  O   UNL     1     -55.374  21.691 -12.245  1.00  0.00    -0.650 OA
BRANCH   3   5
HETATM    5  C   UNL     1     -53.118  21.017 -11.877  1.00  0.00     0.110 C 
BRANCH   5   6
HETATM    6  C   UNL     1     -52.237  21.742 -12.906  1.00  0.00     0.010 C 
BRANCH   6   7
HETATM    7  C   UNL     1     -51.889  20.819 -14.079  1.00  0.00     0.001 C 
BRANCH   7   8
HETATM    8  C   UNL     1     -52.157  21.510 -15.421  1.00  0.00     0.000 C 
BRANCH   8   9
HETATM    9  C   UNL     1     -53.209  22.615 -15.272  1.00  0.00     0.000 C 
BRANCH   9  10
HETATM   10  C   UNL     1     -54.210  22.582 -16.433  1.00  0.00     0.000 C 
BRANCH  10  11
HETATM   11  C   UNL     1     -54.872  21.204 -16.550  1.00  0.00     0.000 C 
BRANCH  11  12
HETATM   12  C   UNL     1     -54.914  20.734 -18.009  1.00  0.00     0.000 C 
BRANCH  12  13
HETATM   13  C   UNL     1     -53.503  20.649 -18.600  1.00  0.00     0.000 C 
BRANCH  13  14
HETATM   14  C   UNL     1     -53.447  21.298 -19.988  1.00  0.00     0.000 C 
BRANCH  14  15
HETATM   15  C   UNL     1     -52.406  22.423 -20.029  1.00  0.00     0.000 C 
BRANCH  15  16
HETATM   16  C   UNL     1     -51.249  22.137 -19.065  1.00  0.00     0.000 C 
BRANCH  16  17
HETATM   17  C   UNL     1     -50.794  23.418 -18.355  1.00  0.00    -0.000 C 
BRANCH  17  18
HETATM   18  C   UNL     1     -51.778  24.567 -18.609  1.00  0.00    -0.005 C 
HETATM   19  C   UNL     1     -51.919  25.455 -17.376  1.00  0.00     0.005 C 
ENDBRANCH  17  18
ENDBRANCH  16  17
ENDBRANCH  15  16
ENDBRANCH  14  15
ENDBRANCH  13  14
ENDBRANCH  12  13
ENDBRANCH  11  12
ENDBRANCH  10  11
ENDBRANCH   9  10
ENDBRANCH   8   9
ENDBRANCH   7   8
ENDBRANCH   6   7
ENDBRANCH   5   6
ENDBRANCH   3   5
ENDBRANCH   1   3
TORSDOF 15
ENDMDL
MODEL 14
REMARK VINA RESULT:      -4.3     33.847     35.946
REMARK  15 active torsions:
REMARK  status: ('A' for Active; 'I' for Inactive)
REMARK    1  A    between atoms: O_1  and  C_18 
REMARK    2  A    between atoms: C_3  and  C_4 
REMARK    3  A    between atoms: C_3  and  C_5 
REMARK    4  A    between atoms: C_4  and  C_6 
REMARK    5  A    between atoms: C_5  and  C_7 
REMARK    6  A    between atoms: C_6  and  C_8 
REMARK    7  A    between atoms: C_7  and  C_9 
REMARK    8  A    between atoms: C_8  and  C_10 
REMARK    9  A    between atoms: C_9  and  C_11 
REMARK   10  A    between atoms: C_10  and  C_12 
REMARK   11  A    between atoms: C_11  and  C_13 
REMARK   12  A    between atoms: C_12  and  C_14 
REMARK   13  A    between atoms: C_13  and  C_15 
REMARK   14  A    between atoms: C_14  and  C_16 
REMARK   15  A    between atoms: C_16  and  C_18 
ROOT
HETATM    1  O   UNL     1     -38.290  -4.030 -20.725  1.00  0.00    -0.776 OA
HETATM    2  H   UNL     1     -39.212  -3.925 -20.450  1.00  0.00     0.167 HD
ENDROOT
BRANCH   1   3
HETATM    3  C   UNL     1     -37.507  -5.000 -20.207  1.00  0.00     0.139 C 
HETATM    4  O   UNL     1     -36.348  -5.109 -20.581  1.00  0.00    -0.650 OA
BRANCH   3   5
HETATM    5  C   UNL     1     -38.085  -5.931 -19.172  1.00  0.00     0.110 C 
BRANCH   5   6
HETATM    6  C   UNL     1     -37.347  -5.870 -17.826  1.00  0.00     0.010 C 
BRANCH   6   7
HETATM    7  C   UNL     1     -37.745  -4.617 -17.037  1.00  0.00     0.001 C 
BRANCH   7   8
HETATM    8  C   UNL     1     -37.488  -4.808 -15.537  1.00  0.00     0.000 C 
BRANCH   8   9
HETATM    9  C   UNL     1     -38.442  -5.852 -14.944  1.00  0.00     0.000 C 
BRANCH   9  10
HETATM   10  C   UNL     1     -37.676  -6.888 -14.114  1.00  0.00     0.000 C 
BRANCH  10  11
HETATM   11  C   UNL     1     -36.162  -6.736 -14.306  1.00  0.00     0.000 C 
BRANCH  11  12
HETATM   12  C   UNL     1     -35.471  -8.104 -14.341  1.00  0.00     0.000 C 
BRANCH  12  13
HETATM   13  C   UNL     1     -35.173  -8.607 -12.924  1.00  0.00     0.000 C 
BRANCH  13  14
HETATM   14  C   UNL     1     -34.721  -7.457 -12.016  1.00  0.00     0.000 C 
BRANCH  14  15
HETATM   15  C   UNL     1     -35.101  -7.727 -10.555  1.00  0.00     0.000 C 
BRANCH  15  16
HETATM   16  C   UNL     1     -36.141  -6.714 -10.061  1.00  0.00     0.000 C 
BRANCH  16  17
HETATM   17  C   UNL     1     -36.338  -6.823  -8.545  1.00  0.00    -0.000 C 
BRANCH  17  18
HETATM   18  C   UNL     1     -37.729  -6.328  -8.134  1.00  0.00    -0.005 C 
HETATM   19  C   UNL     1     -37.707  -5.720  -6.734  1.00  0.00     0.005 C 
ENDBRANCH  17  18
ENDBRANCH  16  17
ENDBRANCH  15  16
ENDBRANCH  14  15
ENDBRANCH  13  14
ENDBRANCH  12  13
ENDBRANCH  11  12
ENDBRANCH  10  11
ENDBRANCH   9  10
ENDBRANCH   8   9
ENDBRANCH   7   8
ENDBRANCH   6   7
ENDBRANCH   5   6
ENDBRANCH   3   5
ENDBRANCH   1   3
TORSDOF 15
ENDMDL
MODEL 15
REMARK VINA RESULT:      -4.3     34.523     36.842
REMARK  15 active torsions:
REMARK  status: ('A' for Active; 'I' for Inactive)
REMARK    1  A    between atoms: O_1  and  C_18 
REMARK    2  A    between atoms: C_3  and  C_4 
REMARK    3  A    between atoms: C_3  and  C_5 
REMARK    4  A    between atoms: C_4  and  C_6 
REMARK    5  A    between atoms: C_5  and  C_7 
REMARK    6  A    between atoms: C_6  and  C_8 
REMARK    7  A    between atoms: C_7  and  C_9 
REMARK    8  A    between atoms: C_8  and  C_10 
REMARK    9  A    between atoms: C_9  and  C_11 
REMARK   10  A    between atoms: C_10  and  C_12 
REMARK   11  A    between atoms: C_11  and  C_13 
REMARK   12  A    between atoms: C_12  and  C_14 
REMARK   13  A    between atoms: C_13  and  C_15 
REMARK   14  A    between atoms: C_14  and  C_16 
REMARK   15  A    between atoms: C_16  and  C_18 
ROOT
HETATM    1  O   UNL     1     -38.462  -5.919 -19.939  1.00  0.00    -0.776 OA
HETATM    2  H   UNL     1     -37.977  -6.209 -20.724  1.00  0.00     0.167 HD
ENDROOT
BRANCH   1   3
HETATM    3  C   UNL     1     -37.825  -5.637 -18.782  1.00  0.00     0.139 C 
HETATM    4  O   UNL     1     -37.554  -4.478 -18.505  1.00  0.00    -0.650 OA
BRANCH   3   5
HETATM    5  C   UNL     1     -37.463  -6.768 -17.854  1.00  0.00     0.110 C 
BRANCH   5   6
HETATM    6  C   UNL     1     -36.459  -6.357 -16.766  1.00  0.00     0.010 C 
BRANCH   6   7
HETATM    7  C   UNL     1     -37.138  -6.276 -15.394  1.00  0.00     0.001 C 
BRANCH   7   8
HETATM    8  C   UNL     1     -36.209  -6.795 -14.289  1.00  0.00     0.000 C 
BRANCH   8   9
HETATM    9  C   UNL     1     -37.013  -7.392 -13.129  1.00  0.00     0.000 C 
BRANCH   9  10
HETATM   10  C   UNL     1     -38.075  -6.405 -12.630  1.00  0.00     0.000 C 
BRANCH  10  11
HETATM   11  C   UNL     1     -37.424  -5.189 -11.960  1.00  0.00     0.000 C 
BRANCH  11  12
HETATM   12  C   UNL     1     -38.233  -4.735 -10.739  1.00  0.00     0.000 C 
BRANCH  12  13
HETATM   13  C   UNL     1     -37.456  -4.981  -9.441  1.00  0.00     0.000 C 
BRANCH  13  14
HETATM   14  C   UNL     1     -37.898  -6.291  -8.776  1.00  0.00     0.000 C 
BRANCH  14  15
HETATM   15  C   UNL     1     -36.692  -7.071  -8.240  1.00  0.00     0.000 C 
BRANCH  15  16
HETATM   16  C   UNL     1     -36.523  -6.855  -6.731  1.00  0.00     0.000 C 
BRANCH  16  17
HETATM   17  C   UNL     1     -37.880  -6.632  -6.053  1.00  0.00    -0.000 C 
BRANCH  17  18
HETATM   18  C   UNL     1     -37.827  -5.432  -5.100  1.00  0.00    -0.005 C 
HETATM   19  C   UNL     1     -37.383  -4.167  -5.830  1.00  0.00     0.005 C 
ENDBRANCH  17  18
ENDBRANCH  16  17
ENDBRANCH  15  16
ENDBRANCH  14  15
ENDBRANCH  13  14
ENDBRANCH  12  13
ENDBRANCH  11  12
ENDBRANCH  10  11
ENDBRANCH   9  10
ENDBRANCH   8   9
ENDBRANCH   7   8
ENDBRANCH   6   7
ENDBRANCH   5   6
ENDBRANCH   3   5
ENDBRANCH   1   3
TORSDOF 15
ENDMDL
MODEL 16
REMARK VINA RESULT:      -4.2     57.812     58.896
REMARK  15 active torsions:
REMARK  status: ('A' for Active; 'I' for Inactive)
REMARK    1  A    between atoms: O_1  and  C_18 
REMARK    2  A    between atoms: C_3  and  C_4 
REMARK    3  A    between atoms: C_3  and  C_5 
REMARK    4  A    between atoms: C_4  and  C_6 
REMARK    5  A    between atoms: C_5  and  C_7 
REMARK    6  A    between atoms: C_6  and  C_8 
REMARK    7  A    between atoms: C_7  and  C_9 
REMARK    8  A    between atoms: C_8  and  C_10 
REMARK    9  A    between atoms: C_9  and  C_11 
REMARK   10  A    between atoms: C_10  and  C_12 
REMARK   11  A    between atoms: C_11  and  C_13 
REMARK   12  A    between atoms: C_12  and  C_14 
REMARK   13  A    between atoms: C_13  and  C_15 
REMARK   14  A    between atoms: C_14  and  C_16 
REMARK   15  A    between atoms: C_16  and  C_18 
ROOT
HETATM    1  O   UNL     1     -54.436  19.469 -12.894  1.00  0.00    -0.776 OA
HETATM    2  H   UNL     1     -54.469  18.567 -12.546  1.00  0.00     0.167 HD
ENDROOT
BRANCH   1   3
HETATM    3  C   UNL     1     -55.152  20.467 -12.333  1.00  0.00     0.139 C 
HETATM    4  O   UNL     1     -56.366  20.358 -12.227  1.00  0.00    -0.650 OA
BRANCH   3   5
HETATM    5  C   UNL     1     -54.433  21.698 -11.847  1.00  0.00     0.110 C 
BRANCH   5   6
HETATM    6  C   UNL     1     -52.911  21.510 -11.752  1.00  0.00     0.010 C 
BRANCH   6   7
HETATM    7  C   UNL     1     -52.171  22.707 -12.358  1.00  0.00     0.001 C 
BRANCH   7   8
HETATM    8  C   UNL     1     -53.113  23.558 -13.219  1.00  0.00     0.000 C 
BRANCH   8   9
HETATM    9  C   UNL     1     -52.744  23.457 -14.704  1.00  0.00     0.000 C 
BRANCH   9  10
HETATM   10  C   UNL     1     -51.946  22.179 -14.986  1.00  0.00     0.000 C 
BRANCH  10  11
HETATM   11  C   UNL     1     -52.655  21.307 -16.029  1.00  0.00     0.000 C 
BRANCH  11  12
HETATM   12  C   UNL     1     -54.177  21.364 -15.852  1.00  0.00     0.000 C 
BRANCH  12  13
HETATM   13  C   UNL     1     -54.892  21.292 -17.206  1.00  0.00     0.000 C 
BRANCH  13  14
HETATM   14  C   UNL     1     -53.967  20.718 -18.286  1.00  0.00     0.000 C 
BRANCH  14  15
HETATM   15  C   UNL     1     -53.954  21.614 -19.531  1.00  0.00     0.000 C 
BRANCH  15  16
HETATM   16  C   UNL     1     -52.522  22.014 -19.905  1.00  0.00     0.000 C 
BRANCH  16  17
HETATM   17  C   UNL     1     -52.073  23.251 -19.118  1.00  0.00    -0.000 C 
BRANCH  17  18
HETATM   18  C   UNL     1     -50.644  23.078 -18.591  1.00  0.00    -0.005 C 
HETATM   19  C   UNL     1     -50.251  24.235 -17.676  1.00  0.00     0.005 C 
ENDBRANCH  17  18
ENDBRANCH  16  17
ENDBRANCH  15  16
ENDBRANCH  14  15
ENDBRANCH  13  14
ENDBRANCH  12  13
ENDBRANCH  11  12
ENDBRANCH  10  11
ENDBRANCH   9  10
ENDBRANCH   8   9
ENDBRANCH   7   8
ENDBRANCH   6   7
ENDBRANCH   5   6
ENDBRANCH   3   5
ENDBRANCH   1   3
TORSDOF 15
ENDMDL
MODEL 17
REMARK VINA RESULT:      -4.2     33.165     34.899
REMARK  15 active torsions:
REMARK  status: ('A' for Active; 'I' for Inactive)
REMARK    1  A    between atoms: O_1  and  C_18 
REMARK    2  A    between atoms: C_3  and  C_4 
REMARK    3  A    between atoms: C_3  and  C_5 
REMARK    4  A    between atoms: C_4  and  C_6 
REMARK    5  A    between atoms: C_5  and  C_7 
REMARK    6  A    between atoms: C_6  and  C_8 
REMARK    7  A    between atoms: C_7  and  C_9 
REMARK    8  A    between atoms: C_8  and  C_10 
REMARK    9  A    between atoms: C_9  and  C_11 
REMARK   10  A    between atoms: C_10  and  C_12 
REMARK   11  A    between atoms: C_11  and  C_13 
REMARK   12  A    between atoms: C_12  and  C_14 
REMARK   13  A    between atoms: C_13  and  C_15 
REMARK   14  A    between atoms: C_14  and  C_16 
REMARK   15  A    between atoms: C_16  and  C_18 
ROOT
HETATM    1  O   UNL     1     -33.373  -7.962 -14.262  1.00  0.00    -0.776 OA
HETATM    2  H   UNL     1     -33.200  -7.755 -13.333  1.00  0.00     0.167 HD
ENDROOT
BRANCH   1   3
HETATM    3  C   UNL     1     -34.211  -8.959 -14.617  1.00  0.00     0.139 C 
HETATM    4  O   UNL     1     -34.226  -9.998 -13.972  1.00  0.00    -0.650 OA
BRANCH   3   5
HETATM    5  C   UNL     1     -35.114  -8.766 -15.808  1.00  0.00     0.110 C 
BRANCH   5   6
HETATM    6  C   UNL     1     -34.733  -9.651 -17.004  1.00  0.00     0.010 C 
BRANCH   6   7
HETATM    7  C   UNL     1     -35.780  -9.549 -18.119  1.00  0.00     0.001 C 
BRANCH   7   8
HETATM    8  C   UNL     1     -36.683  -8.326 -17.915  1.00  0.00     0.000 C 
BRANCH   8   9
HETATM    9  C   UNL     1     -36.476  -7.297 -19.032  1.00  0.00     0.000 C 
BRANCH   9  10
HETATM   10  C   UNL     1     -37.266  -6.013 -18.751  1.00  0.00     0.000 C 
BRANCH  10  11
HETATM   11  C   UNL     1     -37.725  -5.960 -17.288  1.00  0.00     0.000 C 
BRANCH  11  12
HETATM   12  C   UNL     1     -37.669  -4.527 -16.745  1.00  0.00     0.000 C 
BRANCH  12  13
HETATM   13  C   UNL     1     -37.219  -4.511 -15.280  1.00  0.00     0.000 C 
BRANCH  13  14
HETATM   14  C   UNL     1     -37.967  -5.571 -14.463  1.00  0.00     0.000 C 
BRANCH  14  15
HETATM   15  C   UNL     1     -36.988  -6.533 -13.781  1.00  0.00     0.000 C 
BRANCH  15  16
HETATM   16  C   UNL     1     -37.621  -7.177 -12.542  1.00  0.00     0.000 C 
BRANCH  16  17
HETATM   17  C   UNL     1     -37.053  -6.569 -11.254  1.00  0.00    -0.000 C 
BRANCH  17  18
HETATM   18  C   UNL     1     -38.014  -5.529 -10.667  1.00  0.00    -0.005 C 
HETATM   19  C   UNL     1     -37.575  -4.111 -11.022  1.00  0.00     0.005 C 
ENDBRANCH  17  18
ENDBRANCH  16  17
ENDBRANCH  15  16
ENDBRANCH  14  15
ENDBRANCH  13  14
ENDBRANCH  12  13
ENDBRANCH  11  12
ENDBRANCH  10  11
ENDBRANCH   9  10
ENDBRANCH   8   9
ENDBRANCH   7   8
ENDBRANCH   6   7
ENDBRANCH   5   6
ENDBRANCH   3   5
ENDBRANCH   1   3
TORSDOF 15
ENDMDL
MODEL 18
REMARK VINA RESULT:      -4.2     33.014     35.063
REMARK  15 active torsions:
REMARK  status: ('A' for Active; 'I' for Inactive)
REMARK    1  A    between atoms: O_1  and  C_18 
REMARK    2  A    between atoms: C_3  and  C_4 
REMARK    3  A    between atoms: C_3  and  C_5 
REMARK    4  A    between atoms: C_4  and  C_6 
REMARK    5  A    between atoms: C_5  and  C_7 
REMARK    6  A    between atoms: C_6  and  C_8 
REMARK    7  A    between atoms: C_7  and  C_9 
REMARK    8  A    between atoms: C_8  and  C_10 
REMARK    9  A    between atoms: C_9  and  C_11 
REMARK   10  A    between atoms: C_10  and  C_12 
REMARK   11  A    between atoms: C_11  and  C_13 
REMARK   12  A    between atoms: C_12  and  C_14 
REMARK   13  A    between atoms: C_13  and  C_15 
REMARK   14  A    between atoms: C_14  and  C_16 
REMARK   15  A    between atoms: C_16  and  C_18 
ROOT
HETATM    1  O   UNL     1     -35.596 -10.783 -16.651  1.00  0.00    -0.776 OA
HETATM    2  H   UNL     1     -35.296 -11.688 -16.812  1.00  0.00     0.167 HD
ENDROOT
BRANCH   1   3
HETATM    3  C   UNL     1     -34.778  -9.725 -16.839  1.00  0.00     0.139 C 
HETATM    4  O   UNL     1     -34.175  -9.605 -17.896  1.00  0.00    -0.650 OA
BRANCH   3   5
HETATM    5  C   UNL     1     -34.628  -8.713 -15.734  1.00  0.00     0.110 C 
BRANCH   5   6
HETATM    6  C   UNL     1     -34.879  -7.270 -16.199  1.00  0.00     0.010 C 
BRANCH   6   7
HETATM    7  C   UNL     1     -36.341  -7.074 -16.615  1.00  0.00     0.001 C 
BRANCH   7   8
HETATM    8  C   UNL     1     -36.929  -5.808 -15.981  1.00  0.00     0.000 C 
BRANCH   8   9
HETATM    9  C   UNL     1     -37.832  -6.157 -14.791  1.00  0.00     0.000 C 
BRANCH   9  10
HETATM   10  C   UNL     1     -37.667  -5.137 -13.658  1.00  0.00     0.000 C 
BRANCH  10  11
HETATM   11  C   UNL     1     -37.176  -5.816 -12.374  1.00  0.00     0.000 C 
BRANCH  11  12
HETATM   12  C   UNL     1     -36.754  -7.265 -12.643  1.00  0.00     0.000 C 
BRANCH  12  13
HETATM   13  C   UNL     1     -35.232  -7.421 -12.553  1.00  0.00     0.000 C 
BRANCH  13  14
HETATM   14  C   UNL     1     -34.719  -7.023 -11.163  1.00  0.00     0.000 C 
BRANCH  14  15
HETATM   15  C   UNL     1     -35.163  -8.038 -10.102  1.00  0.00     0.000 C 
BRANCH  15  16
HETATM   16  C   UNL     1     -35.759  -7.330  -8.880  1.00  0.00     0.000 C 
BRANCH  16  17
HETATM   17  C   UNL     1     -37.292  -7.374  -8.913  1.00  0.00    -0.000 C 
BRANCH  17  18
HETATM   18  C   UNL     1     -37.892  -6.168  -8.181  1.00  0.00    -0.005 C 
HETATM   19  C   UNL     1     -37.586  -4.867  -8.920  1.00  0.00     0.005 C 
ENDBRANCH  17  18
ENDBRANCH  16  17
ENDBRANCH  15  16
ENDBRANCH  14  15
ENDBRANCH  13  14
ENDBRANCH  12  13
ENDBRANCH  11  12
ENDBRANCH  10  11
ENDBRANCH   9  10
ENDBRANCH   8   9
ENDBRANCH   7   8
ENDBRANCH   6   7
ENDBRANCH   5   6
ENDBRANCH   3   5
ENDBRANCH   1   3
TORSDOF 15
ENDMDL
MODEL 19
REMARK VINA RESULT:      -4.2     35.359     36.983
REMARK  15 active torsions:
REMARK  status: ('A' for Active; 'I' for Inactive)
REMARK    1  A    between atoms: O_1  and  C_18 
REMARK    2  A    between atoms: C_3  and  C_4 
REMARK    3  A    between atoms: C_3  and  C_5 
REMARK    4  A    between atoms: C_4  and  C_6 
REMARK    5  A    between atoms: C_5  and  C_7 
REMARK    6  A    between atoms: C_6  and  C_8 
REMARK    7  A    between atoms: C_7  and  C_9 
REMARK    8  A    between atoms: C_8  and  C_10 
REMARK    9  A    between atoms: C_9  and  C_11 
REMARK   10  A    between atoms: C_10  and  C_12 
REMARK   11  A    between atoms: C_11  and  C_13 
REMARK   12  A    between atoms: C_12  and  C_14 
REMARK   13  A    between atoms: C_13  and  C_15 
REMARK   14  A    between atoms: C_14  and  C_16 
REMARK   15  A    between atoms: C_16  and  C_18 
ROOT
HETATM    1  O   UNL     1     -42.813  -8.928 -19.650  1.00  0.00    -0.776 OA
HETATM    2  H   UNL     1     -43.414  -9.575 -19.255  1.00  0.00     0.167 HD
ENDROOT
BRANCH   1   3
HETATM    3  C   UNL     1     -41.491  -8.938 -19.378  1.00  0.00     0.139 C 
HETATM    4  O   UNL     1     -41.110  -9.006 -18.218  1.00  0.00    -0.650 OA
BRANCH   3   5
HETATM    5  C   UNL     1     -40.510  -8.864 -20.519  1.00  0.00     0.110 C 
BRANCH   5   6
HETATM    6  C   UNL     1     -39.419  -7.802 -20.310  1.00  0.00     0.010 C 
BRANCH   6   7
HETATM    7  C   UNL     1     -38.469  -7.746 -21.511  1.00  0.00     0.001 C 
BRANCH   7   8
HETATM    8  C   UNL     1     -37.997  -6.310 -21.772  1.00  0.00     0.000 C 
BRANCH   8   9
HETATM    9  C   UNL     1     -37.025  -5.843 -20.683  1.00  0.00     0.000 C 
BRANCH   9  10
HETATM   10  C   UNL     1     -37.548  -4.584 -19.982  1.00  0.00     0.000 C 
BRANCH  10  11
HETATM   11  C   UNL     1     -37.667  -4.805 -18.469  1.00  0.00     0.000 C 
BRANCH  11  12
HETATM   12  C   UNL     1     -37.054  -6.149 -18.059  1.00  0.00     0.000 C 
BRANCH  12  13
HETATM   13  C   UNL     1     -36.808  -6.203 -16.547  1.00  0.00     0.000 C 
BRANCH  13  14
HETATM   14  C   UNL     1     -36.942  -4.810 -15.918  1.00  0.00     0.000 C 
BRANCH  14  15
HETATM   15  C   UNL     1     -37.750  -4.870 -14.616  1.00  0.00     0.000 C 
BRANCH  15  16
HETATM   16  C   UNL     1     -38.357  -6.262 -14.408  1.00  0.00     0.000 C 
BRANCH  16  17
HETATM   17  C   UNL     1     -38.039  -6.797 -13.006  1.00  0.00    -0.000 C 
BRANCH  17  18
HETATM   18  C   UNL     1     -36.546  -6.658 -12.690  1.00  0.00    -0.005 C 
HETATM   19  C   UNL     1     -35.746  -7.812 -13.288  1.00  0.00     0.005 C 
ENDBRANCH  17  18
ENDBRANCH  16  17
ENDBRANCH  15  16
ENDBRANCH  14  15
ENDBRANCH  13  14
ENDBRANCH  12  13
ENDBRANCH  11  12
ENDBRANCH  10  11
ENDBRANCH   9  10
ENDBRANCH   8   9
ENDBRANCH   7   8
ENDBRANCH   6   7
ENDBRANCH   5   6
ENDBRANCH   3   5
ENDBRANCH   1   3
TORSDOF 15
ENDMDL
MODEL 20
REMARK VINA RESULT:      -4.1     34.261     36.051
REMARK  15 active torsions:
REMARK  status: ('A' for Active; 'I' for Inactive)
REMARK    1  A    between atoms: O_1  and  C_18 
REMARK    2  A    between atoms: C_3  and  C_4 
REMARK    3  A    between atoms: C_3  and  C_5 
REMARK    4  A    between atoms: C_4  and  C_6 
REMARK    5  A    between atoms: C_5  and  C_7 
REMARK    6  A    between atoms: C_6  and  C_8 
REMARK    7  A    between atoms: C_7  and  C_9 
REMARK    8  A    between atoms: C_8  and  C_10 
REMARK    9  A    between atoms: C_9  and  C_11 
REMARK   10  A    between atoms: C_10  and  C_12 
REMARK   11  A    between atoms: C_11  and  C_13 
REMARK   12  A    between atoms: C_12  and  C_14 
REMARK   13  A    between atoms: C_13  and  C_15 
REMARK   14  A    between atoms: C_14  and  C_16 
REMARK   15  A    between atoms: C_16  and  C_18 
ROOT
HETATM    1  O   UNL     1     -25.572  16.907 -13.120  1.00  0.00    -0.776 OA
HETATM    2  H   UNL     1     -26.332  17.460 -13.348  1.00  0.00     0.167 HD
ENDROOT
BRANCH   1   3
HETATM    3  C   UNL     1     -25.597  15.569 -13.293  1.00  0.00     0.139 C 
HETATM    4  O   UNL     1     -25.103  15.077 -14.298  1.00  0.00    -0.650 OA
BRANCH   3   5
HETATM    5  C   UNL     1     -26.236  14.707 -12.235  1.00  0.00     0.110 C 
BRANCH   5   6
HETATM    6  C   UNL     1     -25.637  14.925 -10.837  1.00  0.00     0.010 C 
BRANCH   6   7
HETATM    7  C   UNL     1     -26.098  13.833  -9.865  1.00  0.00     0.001 C 
BRANCH   7   8
HETATM    8  C   UNL     1     -27.603  13.941  -9.590  1.00  0.00     0.000 C 
BRANCH   8   9
HETATM    9  C   UNL     1     -27.892  13.901  -8.085  1.00  0.00     0.000 C 
BRANCH   9  10
HETATM   10  C   UNL     1     -26.640  14.256  -7.275  1.00  0.00     0.000 C 
BRANCH  10  11
HETATM   11  C   UNL     1     -26.816  15.594  -6.547  1.00  0.00     0.000 C 
BRANCH  11  12
HETATM   12  C   UNL     1     -26.457  16.771  -7.461  1.00  0.00     0.000 C 
BRANCH  12  13
HETATM   13  C   UNL     1     -27.623  17.761  -7.568  1.00  0.00     0.000 C 
BRANCH  13  14
HETATM   14  C   UNL     1     -28.605  17.338  -8.667  1.00  0.00     0.000 C 
BRANCH  14  15
HETATM   15  C   UNL     1     -28.146  17.843 -10.040  1.00  0.00     0.000 C 
BRANCH  15  16
HETATM   16  C   UNL     1     -28.375  19.353 -10.175  1.00  0.00     0.000 C 
BRANCH  16  17
HETATM   17  C   UNL     1     -29.868  19.672 -10.322  1.00  0.00    -0.000 C 
BRANCH  17  18
HETATM   18  C   UNL     1     -30.343  19.434 -11.760  1.00  0.00    -0.005 C 
HETATM   19  C   UNL     1     -29.370  20.040 -12.768  1.00  0.00     0.005 C 
ENDBRANCH  17  18
ENDBRANCH  16  17
ENDBRANCH  15  16
ENDBRANCH  14  15
ENDBRANCH  13  14
ENDBRANCH  12  13
ENDBRANCH  11  12
ENDBRANCH  10  11
ENDBRANCH   9  10
ENDBRANCH   8   9
ENDBRANCH   7   8
ENDBRANCH   6   7
ENDBRANCH   5   6
ENDBRANCH   3   5
ENDBRANCH   1   3
TORSDOF 15
ENDMDL
