MODEL 1
REMARK VINA RESULT:      -5.9      0.000      0.000
REMARK  15 active torsions:
REMARK  status: ('A' for Active; 'I' for Inactive)
REMARK    1  A    between atoms: O_1  and  C_18 
REMARK    2  A    between atoms: C_3  and  C_4 
REMARK    3  A    between atoms: C_3  and  C_5 
REMARK    4  A    between atoms: C_4  and  C_6 
REMARK    5  A    between atoms: C_5  and  C_7 
REMARK    6  A    between atoms: C_6  and  C_8 
REMARK    7  A    between atoms: C_7  and  C_9 
REMARK    8  A    between atoms: C_8  and  C_10 
REMARK    9  A    between atoms: C_9  and  C_11 
REMARK   10  A    between atoms: C_10  and  C_12 
REMARK   11  A    between atoms: C_11  and  C_13 
REMARK   12  A    between atoms: C_12  and  C_14 
REMARK   13  A    between atoms: C_13  and  C_15 
REMARK   14  A    between atoms: C_14  and  C_16 
REMARK   15  A    between atoms: C_16  and  C_18 
ROOT
HETATM    1  O   UNL     1      -1.554  -8.117  -4.950  1.00  0.00    -0.776 OA
HETATM    2  H   UNL     1      -0.874  -8.729  -5.262  1.00  0.00     0.167 HD
ENDROOT
BRANCH   1   3
HETATM    3  C   UNL     1      -1.966  -7.077  -5.706  1.00  0.00     0.139 C 
HETATM    4  O   UNL     1      -1.840  -5.935  -5.289  1.00  0.00    -0.650 OA
BRANCH   3   5
HETATM    5  C   UNL     1      -2.575  -7.352  -7.057  1.00  0.00     0.110 C 
BRANCH   5   6
HETATM    6  C   UNL     1      -2.059  -8.650  -7.698  1.00  0.00     0.010 C 
BRANCH   6   7
HETATM    7  C   UNL     1      -1.762  -8.446  -9.188  1.00  0.00     0.001 C 
BRANCH   7   8
HETATM    8  C   UNL     1      -2.656  -7.351  -9.783  1.00  0.00     0.000 C 
BRANCH   8   9
HETATM    9  C   UNL     1      -2.181  -6.955 -11.186  1.00  0.00     0.000 C 
BRANCH   9  10
HETATM   10  C   UNL     1      -2.297  -8.133 -12.159  1.00  0.00     0.000 C 
BRANCH  10  11
HETATM   11  C   UNL     1      -2.211  -7.656 -13.614  1.00  0.00     0.000 C 
BRANCH  11  12
HETATM   12  C   UNL     1      -3.511  -7.954 -14.370  1.00  0.00     0.000 C 
BRANCH  12  13
HETATM   13  C   UNL     1      -3.456  -7.401 -15.798  1.00  0.00     0.000 C 
BRANCH  13  14
HETATM   14  C   UNL     1      -2.135  -7.775 -16.483  1.00  0.00     0.000 C 
BRANCH  14  15
HETATM   15  C   UNL     1      -2.381  -8.314 -17.897  1.00  0.00     0.000 C 
BRANCH  15  16
HETATM   16  C   UNL     1      -3.765  -7.900 -18.411  1.00  0.00     0.000 C 
BRANCH  16  17
HETATM   17  C   UNL     1      -3.745  -7.682 -19.929  1.00  0.00    -0.000 C 
BRANCH  17  18
HETATM   18  C   UNL     1      -2.319  -7.783 -20.480  1.00  0.00    -0.005 C 
HETATM   19  C   UNL     1      -2.320  -7.822 -22.006  1.00  0.00     0.005 C 
ENDBRANCH  17  18
ENDBRANCH  16  17
ENDBRANCH  15  16
ENDBRANCH  14  15
ENDBRANCH  13  14
ENDBRANCH  12  13
ENDBRANCH  11  12
ENDBRANCH  10  11
ENDBRANCH   9  10
ENDBRANCH   8   9
ENDBRANCH   7   8
ENDBRANCH   6   7
ENDBRANCH   5   6
ENDBRANCH   3   5
ENDBRANCH   1   3
TORSDOF 15
ENDMDL
MODEL 2
REMARK VINA RESULT:      -5.8      4.466     11.576
REMARK  15 active torsions:
REMARK  status: ('A' for Active; 'I' for Inactive)
REMARK    1  A    between atoms: O_1  and  C_18 
REMARK    2  A    between atoms: C_3  and  C_4 
REMARK    3  A    between atoms: C_3  and  C_5 
REMARK    4  A    between atoms: C_4  and  C_6 
REMARK    5  A    between atoms: C_5  and  C_7 
REMARK    6  A    between atoms: C_6  and  C_8 
REMARK    7  A    between atoms: C_7  and  C_9 
REMARK    8  A    between atoms: C_8  and  C_10 
REMARK    9  A    between atoms: C_9  and  C_11 
REMARK   10  A    between atoms: C_10  and  C_12 
REMARK   11  A    between atoms: C_11  and  C_13 
REMARK   12  A    between atoms: C_12  and  C_14 
REMARK   13  A    between atoms: C_13  and  C_15 
REMARK   14  A    between atoms: C_14  and  C_16 
REMARK   15  A    between atoms: C_16  and  C_18 
ROOT
HETATM    1  O   UNL     1      -1.195  -6.101 -14.765  1.00  0.00    -0.776 OA
HETATM    2  H   UNL     1      -1.042  -5.211 -15.113  1.00  0.00     0.167 HD
ENDROOT
BRANCH   1   3
HETATM    3  C   UNL     1      -2.047  -6.956 -15.369  1.00  0.00     0.139 C 
HETATM    4  O   UNL     1      -1.998  -7.108 -16.581  1.00  0.00    -0.650 OA
BRANCH   3   5
HETATM    5  C   UNL     1      -3.045  -7.709 -14.527  1.00  0.00     0.110 C 
BRANCH   5   6
HETATM    6  C   UNL     1      -2.400  -8.453 -13.348  1.00  0.00     0.010 C 
BRANCH   6   7
HETATM    7  C   UNL     1      -2.962  -7.957 -12.011  1.00  0.00     0.001 C 
BRANCH   7   8
HETATM    8  C   UNL     1      -1.965  -7.030 -11.306  1.00  0.00     0.000 C 
BRANCH   8   9
HETATM    9  C   UNL     1      -2.330  -6.851  -9.827  1.00  0.00     0.000 C 
BRANCH   9  10
HETATM   10  C   UNL     1      -2.119  -8.154  -9.047  1.00  0.00     0.000 C 
BRANCH  10  11
HETATM   11  C   UNL     1      -2.995  -8.189  -7.789  1.00  0.00     0.000 C 
BRANCH  11  12
HETATM   12  C   UNL     1      -2.302  -7.487  -6.615  1.00  0.00     0.000 C 
BRANCH  12  13
HETATM   13  C   UNL     1      -2.972  -7.848  -5.284  1.00  0.00     0.000 C 
BRANCH  13  14
HETATM   14  C   UNL     1      -1.930  -8.013  -4.171  1.00  0.00     0.000 C 
BRANCH  14  15
HETATM   15  C   UNL     1      -2.605  -8.250  -2.815  1.00  0.00     0.000 C 
BRANCH  15  16
HETATM   16  C   UNL     1      -4.087  -8.601  -2.993  1.00  0.00     0.000 C 
BRANCH  16  17
HETATM   17  C   UNL     1      -4.409  -9.964  -2.368  1.00  0.00    -0.000 C 
BRANCH  17  18
HETATM   18  C   UNL     1      -3.215 -10.498  -1.568  1.00  0.00    -0.005 C 
HETATM   19  C   UNL     1      -3.630 -11.657  -0.666  1.00  0.00     0.005 C 
ENDBRANCH  17  18
ENDBRANCH  16  17
ENDBRANCH  15  16
ENDBRANCH  14  15
ENDBRANCH  13  14
ENDBRANCH  12  13
ENDBRANCH  11  12
ENDBRANCH  10  11
ENDBRANCH   9  10
ENDBRANCH   8   9
ENDBRANCH   7   8
ENDBRANCH   6   7
ENDBRANCH   5   6
ENDBRANCH   3   5
ENDBRANCH   1   3
TORSDOF 15
ENDMDL
MODEL 3
REMARK VINA RESULT:      -5.3      1.894      3.121
REMARK  15 active torsions:
REMARK  status: ('A' for Active; 'I' for Inactive)
REMARK    1  A    between atoms: O_1  and  C_18 
REMARK    2  A    between atoms: C_3  and  C_4 
REMARK    3  A    between atoms: C_3  and  C_5 
REMARK    4  A    between atoms: C_4  and  C_6 
REMARK    5  A    between atoms: C_5  and  C_7 
REMARK    6  A    between atoms: C_6  and  C_8 
REMARK    7  A    between atoms: C_7  and  C_9 
REMARK    8  A    between atoms: C_8  and  C_10 
REMARK    9  A    between atoms: C_9  and  C_11 
REMARK   10  A    between atoms: C_10  and  C_12 
REMARK   11  A    between atoms: C_11  and  C_13 
REMARK   12  A    between atoms: C_12  and  C_14 
REMARK   13  A    between atoms: C_13  and  C_15 
REMARK   14  A    between atoms: C_14  and  C_16 
REMARK   15  A    between atoms: C_16  and  C_18 
ROOT
HETATM    1  O   UNL     1      -5.255  -8.836  -8.411  1.00  0.00    -0.776 OA
HETATM    2  H   UNL     1      -5.239  -9.720  -8.018  1.00  0.00     0.167 HD
ENDROOT
BRANCH   1   3
HETATM    3  C   UNL     1      -4.175  -8.027  -8.369  1.00  0.00     0.139 C 
HETATM    4  O   UNL     1      -3.609  -7.824  -7.304  1.00  0.00    -0.650 OA
BRANCH   3   5
HETATM    5  C   UNL     1      -3.688  -7.393  -9.646  1.00  0.00     0.110 C 
BRANCH   5   6
HETATM    6  C   UNL     1      -2.402  -8.036 -10.188  1.00  0.00     0.010 C 
BRANCH   6   7
HETATM    7  C   UNL     1      -2.019  -7.439 -11.546  1.00  0.00     0.001 C 
BRANCH   7   8
HETATM    8  C   UNL     1      -2.825  -8.086 -12.679  1.00  0.00     0.000 C 
BRANCH   8   9
HETATM    9  C   UNL     1      -2.036  -8.071 -13.994  1.00  0.00     0.000 C 
BRANCH   9  10
HETATM   10  C   UNL     1      -2.335  -6.802 -14.800  1.00  0.00     0.000 C 
BRANCH  10  11
HETATM   11  C   UNL     1      -2.054  -7.019 -16.292  1.00  0.00     0.000 C 
BRANCH  11  12
HETATM   12  C   UNL     1      -2.845  -8.215 -16.834  1.00  0.00     0.000 C 
BRANCH  12  13
HETATM   13  C   UNL     1      -3.169  -8.034 -18.321  1.00  0.00     0.000 C 
BRANCH  13  14
HETATM   14  C   UNL     1      -1.894  -8.082 -19.171  1.00  0.00     0.000 C 
BRANCH  14  15
HETATM   15  C   UNL     1      -2.013  -7.165 -20.395  1.00  0.00     0.000 C 
BRANCH  15  16
HETATM   16  C   UNL     1      -2.955  -7.767 -21.443  1.00  0.00     0.000 C 
BRANCH  16  17
HETATM   17  C   UNL     1      -2.166  -8.347 -22.623  1.00  0.00    -0.000 C 
BRANCH  17  18
HETATM   18  C   UNL     1      -2.701  -7.814 -23.958  1.00  0.00    -0.005 C 
HETATM   19  C   UNL     1      -1.561  -7.379 -24.874  1.00  0.00     0.005 C 
ENDBRANCH  17  18
ENDBRANCH  16  17
ENDBRANCH  15  16
ENDBRANCH  14  15
ENDBRANCH  13  14
ENDBRANCH  12  13
ENDBRANCH  11  12
ENDBRANCH  10  11
ENDBRANCH   9  10
ENDBRANCH   8   9
ENDBRANCH   7   8
ENDBRANCH   6   7
ENDBRANCH   5   6
ENDBRANCH   3   5
ENDBRANCH   1   3
TORSDOF 15
ENDMDL
MODEL 4
REMARK VINA RESULT:      -4.7     34.282     35.920
REMARK  15 active torsions:
REMARK  status: ('A' for Active; 'I' for Inactive)
REMARK    1  A    between atoms: O_1  and  C_18 
REMARK    2  A    between atoms: C_3  and  C_4 
REMARK    3  A    between atoms: C_3  and  C_5 
REMARK    4  A    between atoms: C_4  and  C_6 
REMARK    5  A    between atoms: C_5  and  C_7 
REMARK    6  A    between atoms: C_6  and  C_8 
REMARK    7  A    between atoms: C_7  and  C_9 
REMARK    8  A    between atoms: C_8  and  C_10 
REMARK    9  A    between atoms: C_9  and  C_11 
REMARK   10  A    between atoms: C_10  and  C_12 
REMARK   11  A    between atoms: C_11  and  C_13 
REMARK   12  A    between atoms: C_12  and  C_14 
REMARK   13  A    between atoms: C_13  and  C_15 
REMARK   14  A    between atoms: C_14  and  C_16 
REMARK   15  A    between atoms: C_16  and  C_18 
ROOT
HETATM    1  O   UNL     1     -37.291  -3.532 -15.636  1.00  0.00    -0.776 OA
HETATM    2  H   UNL     1     -37.591  -3.530 -14.717  1.00  0.00     0.167 HD
ENDROOT
BRANCH   1   3
HETATM    3  C   UNL     1     -37.563  -4.563 -16.464  1.00  0.00     0.139 C 
HETATM    4  O   UNL     1     -37.784  -4.350 -17.647  1.00  0.00    -0.650 OA
BRANCH   3   5
HETATM    5  C   UNL     1     -37.585  -5.962 -15.904  1.00  0.00     0.110 C 
BRANCH   5   6
HETATM    6  C   UNL     1     -38.768  -6.213 -14.956  1.00  0.00     0.010 C 
BRANCH   6   7
HETATM    7  C   UNL     1     -38.308  -6.931 -13.682  1.00  0.00     0.001 C 
BRANCH   7   8
HETATM    8  C   UNL     1     -37.251  -6.107 -12.937  1.00  0.00     0.000 C 
BRANCH   8   9
HETATM    9  C   UNL     1     -36.475  -6.977 -11.941  1.00  0.00     0.000 C 
BRANCH   9  10
HETATM   10  C   UNL     1     -35.919  -6.132 -10.789  1.00  0.00     0.000 C 
BRANCH  10  11
HETATM   11  C   UNL     1     -36.766  -6.303  -9.523  1.00  0.00     0.000 C 
BRANCH  11  12
HETATM   12  C   UNL     1     -36.690  -7.742  -8.999  1.00  0.00     0.000 C 
BRANCH  12  13
HETATM   13  C   UNL     1     -35.345  -8.008  -8.314  1.00  0.00     0.000 C 
BRANCH  13  14
HETATM   14  C   UNL     1     -35.110  -7.025  -7.161  1.00  0.00     0.000 C 
BRANCH  14  15
HETATM   15  C   UNL     1     -35.144  -7.745  -5.808  1.00  0.00     0.000 C 
BRANCH  15  16
HETATM   16  C   UNL     1     -36.538  -7.663  -5.175  1.00  0.00     0.000 C 
BRANCH  16  17
HETATM   17  C   UNL     1     -36.932  -6.207  -4.900  1.00  0.00    -0.000 C 
BRANCH  17  18
HETATM   18  C   UNL     1     -38.016  -5.736  -5.877  1.00  0.00    -0.005 C 
HETATM   19  C   UNL     1     -37.671  -4.372  -6.468  1.00  0.00     0.005 C 
ENDBRANCH  17  18
ENDBRANCH  16  17
ENDBRANCH  15  16
ENDBRANCH  14  15
ENDBRANCH  13  14
ENDBRANCH  12  13
ENDBRANCH  11  12
ENDBRANCH  10  11
ENDBRANCH   9  10
ENDBRANCH   8   9
ENDBRANCH   7   8
ENDBRANCH   6   7
ENDBRANCH   5   6
ENDBRANCH   3   5
ENDBRANCH   1   3
TORSDOF 15
ENDMDL
MODEL 5
REMARK VINA RESULT:      -4.5     33.539     35.136
REMARK  15 active torsions:
REMARK  status: ('A' for Active; 'I' for Inactive)
REMARK    1  A    between atoms: O_1  and  C_18 
REMARK    2  A    between atoms: C_3  and  C_4 
REMARK    3  A    between atoms: C_3  and  C_5 
REMARK    4  A    between atoms: C_4  and  C_6 
REMARK    5  A    between atoms: C_5  and  C_7 
REMARK    6  A    between atoms: C_6  and  C_8 
REMARK    7  A    between atoms: C_7  and  C_9 
REMARK    8  A    between atoms: C_8  and  C_10 
REMARK    9  A    between atoms: C_9  and  C_11 
REMARK   10  A    between atoms: C_10  and  C_12 
REMARK   11  A    between atoms: C_11  and  C_13 
REMARK   12  A    between atoms: C_12  and  C_14 
REMARK   13  A    between atoms: C_13  and  C_15 
REMARK   14  A    between atoms: C_14  and  C_16 
REMARK   15  A    between atoms: C_16  and  C_18 
ROOT
HETATM    1  O   UNL     1     -34.046  -7.068 -16.422  1.00  0.00    -0.776 OA
HETATM    2  H   UNL     1     -33.082  -7.128 -16.363  1.00  0.00     0.167 HD
ENDROOT
BRANCH   1   3
HETATM    3  C   UNL     1     -34.817  -8.173 -16.500  1.00  0.00     0.139 C 
HETATM    4  O   UNL     1     -34.372  -9.251 -16.132  1.00  0.00    -0.650 OA
BRANCH   3   5
HETATM    5  C   UNL     1     -36.218  -8.050 -17.041  1.00  0.00     0.110 C 
BRANCH   5   6
HETATM    6  C   UNL     1     -36.465  -6.724 -17.778  1.00  0.00     0.010 C 
BRANCH   6   7
HETATM    7  C   UNL     1     -37.757  -6.058 -17.291  1.00  0.00     0.001 C 
BRANCH   7   8
HETATM    8  C   UNL     1     -37.473  -4.674 -16.696  1.00  0.00     0.000 C 
BRANCH   8   9
HETATM    9  C   UNL     1     -37.843  -4.626 -15.209  1.00  0.00     0.000 C 
BRANCH   9  10
HETATM   10  C   UNL     1     -38.498  -5.939 -14.764  1.00  0.00     0.000 C 
BRANCH  10  11
HETATM   11  C   UNL     1     -37.992  -6.364 -13.380  1.00  0.00     0.000 C 
BRANCH  11  12
HETATM   12  C   UNL     1     -37.209  -5.231 -12.707  1.00  0.00     0.000 C 
BRANCH  12  13
HETATM   13  C   UNL     1     -37.955  -4.699 -11.479  1.00  0.00     0.000 C 
BRANCH  13  14
HETATM   14  C   UNL     1     -37.163  -4.972 -10.193  1.00  0.00     0.000 C 
BRANCH  14  15
HETATM   15  C   UNL     1     -37.745  -6.169  -9.432  1.00  0.00     0.000 C 
BRANCH  15  16
HETATM   16  C   UNL     1     -36.965  -7.452  -9.746  1.00  0.00     0.000 C 
BRANCH  16  17
HETATM   17  C   UNL     1     -35.514  -7.345  -9.263  1.00  0.00    -0.000 C 
BRANCH  17  18
HETATM   18  C   UNL     1     -34.533  -7.690 -10.389  1.00  0.00    -0.005 C 
HETATM   19  C   UNL     1     -35.271  -8.175 -11.634  1.00  0.00     0.005 C 
ENDBRANCH  17  18
ENDBRANCH  16  17
ENDBRANCH  15  16
ENDBRANCH  14  15
ENDBRANCH  13  14
ENDBRANCH  12  13
ENDBRANCH  11  12
ENDBRANCH  10  11
ENDBRANCH   9  10
ENDBRANCH   8   9
ENDBRANCH   7   8
ENDBRANCH   6   7
ENDBRANCH   5   6
ENDBRANCH   3   5
ENDBRANCH   1   3
TORSDOF 15
ENDMDL
MODEL 6
REMARK VINA RESULT:      -4.4     33.480     34.764
REMARK  15 active torsions:
REMARK  status: ('A' for Active; 'I' for Inactive)
REMARK    1  A    between atoms: O_1  and  C_18 
REMARK    2  A    between atoms: C_3  and  C_4 
REMARK    3  A    between atoms: C_3  and  C_5 
REMARK    4  A    between atoms: C_4  and  C_6 
REMARK    5  A    between atoms: C_5  and  C_7 
REMARK    6  A    between atoms: C_6  and  C_8 
REMARK    7  A    between atoms: C_7  and  C_9 
REMARK    8  A    between atoms: C_8  and  C_10 
REMARK    9  A    between atoms: C_9  and  C_11 
REMARK   10  A    between atoms: C_10  and  C_12 
REMARK   11  A    between atoms: C_11  and  C_13 
REMARK   12  A    between atoms: C_12  and  C_14 
REMARK   13  A    between atoms: C_13  and  C_15 
REMARK   14  A    between atoms: C_14  and  C_16 
REMARK   15  A    between atoms: C_16  and  C_18 
ROOT
HETATM    1  O   UNL     1     -37.553  -3.965 -14.781  1.00  0.00    -0.776 OA
HETATM    2  H   UNL     1     -37.334  -4.409 -13.950  1.00  0.00     0.167 HD
ENDROOT
BRANCH   1   3
HETATM    3  C   UNL     1     -37.528  -4.623 -15.959  1.00  0.00     0.139 C 
HETATM    4  O   UNL     1     -37.678  -4.005 -17.003  1.00  0.00    -0.650 OA
BRANCH   3   5
HETATM    5  C   UNL     1     -37.312  -6.114 -15.958  1.00  0.00     0.110 C 
BRANCH   5   6
HETATM    6  C   UNL     1     -35.835  -6.510 -15.802  1.00  0.00     0.010 C 
BRANCH   6   7
HETATM    7  C   UNL     1     -35.292  -7.127 -17.096  1.00  0.00     0.001 C 
BRANCH   7   8
HETATM    8  C   UNL     1     -36.240  -8.207 -17.631  1.00  0.00     0.000 C 
BRANCH   8   9
HETATM    9  C   UNL     1     -35.711  -9.611 -17.312  1.00  0.00     0.000 C 
BRANCH   9  10
HETATM   10  C   UNL     1     -35.963 -10.571 -18.480  1.00  0.00     0.000 C 
BRANCH  10  11
HETATM   11  C   UNL     1     -36.978  -9.983 -19.467  1.00  0.00     0.000 C 
BRANCH  11  12
HETATM   12  C   UNL     1     -36.473 -10.099 -20.910  1.00  0.00     0.000 C 
BRANCH  12  13
HETATM   13  C   UNL     1     -35.034  -9.586 -21.033  1.00  0.00     0.000 C 
BRANCH  13  14
HETATM   14  C   UNL     1     -34.970  -8.334 -21.918  1.00  0.00     0.000 C 
BRANCH  14  15
HETATM   15  C   UNL     1     -34.597  -7.096 -21.093  1.00  0.00     0.000 C 
BRANCH  15  16
HETATM   16  C   UNL     1     -35.843  -6.275 -20.742  1.00  0.00     0.000 C 
BRANCH  16  17
HETATM   17  C   UNL     1     -36.956  -6.495 -21.773  1.00  0.00    -0.000 C 
BRANCH  17  18
HETATM   18  C   UNL     1     -38.287  -6.818 -21.084  1.00  0.00    -0.005 C 
HETATM   19  C   UNL     1     -38.379  -6.142 -19.719  1.00  0.00     0.005 C 
ENDBRANCH  17  18
ENDBRANCH  16  17
ENDBRANCH  15  16
ENDBRANCH  14  15
ENDBRANCH  13  14
ENDBRANCH  12  13
ENDBRANCH  11  12
ENDBRANCH  10  11
ENDBRANCH   9  10
ENDBRANCH   8   9
ENDBRANCH   7   8
ENDBRANCH   6   7
ENDBRANCH   5   6
ENDBRANCH   3   5
ENDBRANCH   1   3
TORSDOF 15
ENDMDL
MODEL 7
REMARK VINA RESULT:      -4.4     34.736     36.538
REMARK  15 active torsions:
REMARK  status: ('A' for Active; 'I' for Inactive)
REMARK    1  A    between atoms: O_1  and  C_18 
REMARK    2  A    between atoms: C_3  and  C_4 
REMARK    3  A    between atoms: C_3  and  C_5 
REMARK    4  A    between atoms: C_4  and  C_6 
REMARK    5  A    between atoms: C_5  and  C_7 
REMARK    6  A    between atoms: C_6  and  C_8 
REMARK    7  A    between atoms: C_7  and  C_9 
REMARK    8  A    between atoms: C_8  and  C_10 
REMARK    9  A    between atoms: C_9  and  C_11 
REMARK   10  A    between atoms: C_10  and  C_12 
REMARK   11  A    between atoms: C_11  and  C_13 
REMARK   12  A    between atoms: C_12  and  C_14 
REMARK   13  A    between atoms: C_13  and  C_15 
REMARK   14  A    between atoms: C_14  and  C_16 
REMARK   15  A    between atoms: C_16  and  C_18 
ROOT
HETATM    1  O   UNL     1     -37.828  -3.981 -20.087  1.00  0.00    -0.776 OA
HETATM    2  H   UNL     1     -38.531  -3.601 -20.633  1.00  0.00     0.167 HD
ENDROOT
BRANCH   1   3
HETATM    3  C   UNL     1     -37.926  -5.228 -19.580  1.00  0.00     0.139 C 
HETATM    4  O   UNL     1     -38.782  -5.991 -20.005  1.00  0.00    -0.650 OA
BRANCH   3   5
HETATM    5  C   UNL     1     -36.971  -5.652 -18.495  1.00  0.00     0.110 C 
BRANCH   5   6
HETATM    6  C   UNL     1     -37.681  -6.146 -17.225  1.00  0.00     0.010 C 
BRANCH   6   7
HETATM    7  C   UNL     1     -36.697  -6.268 -16.057  1.00  0.00     0.001 C 
BRANCH   7   8
HETATM    8  C   UNL     1     -37.312  -5.729 -14.760  1.00  0.00     0.000 C 
BRANCH   8   9
HETATM    9  C   UNL     1     -38.226  -6.774 -14.108  1.00  0.00     0.000 C 
BRANCH   9  10
HETATM   10  C   UNL     1     -38.022  -6.811 -12.589  1.00  0.00     0.000 C 
BRANCH  10  11
HETATM   11  C   UNL     1     -36.533  -6.906 -12.236  1.00  0.00     0.000 C 
BRANCH  11  12
HETATM   12  C   UNL     1     -36.239  -6.218 -10.897  1.00  0.00     0.000 C 
BRANCH  12  13
HETATM   13  C   UNL     1     -36.787  -4.786 -10.882  1.00  0.00     0.000 C 
BRANCH  13  14
HETATM   14  C   UNL     1     -37.764  -4.583  -9.717  1.00  0.00     0.000 C 
BRANCH  14  15
HETATM   15  C   UNL     1     -37.647  -5.721  -8.696  1.00  0.00     0.000 C 
BRANCH  15  16
HETATM   16  C   UNL     1     -37.554  -5.171  -7.268  1.00  0.00     0.000 C 
BRANCH  16  17
HETATM   17  C   UNL     1     -36.602  -6.016  -6.414  1.00  0.00    -0.000 C 
BRANCH  17  18
HETATM   18  C   UNL     1     -37.061  -6.053  -4.951  1.00  0.00    -0.005 C 
HETATM   19  C   UNL     1     -37.753  -4.751  -4.559  1.00  0.00     0.005 C 
ENDBRANCH  17  18
ENDBRANCH  16  17
ENDBRANCH  15  16
ENDBRANCH  14  15
ENDBRANCH  13  14
ENDBRANCH  12  13
ENDBRANCH  11  12
ENDBRANCH  10  11
ENDBRANCH   9  10
ENDBRANCH   8   9
ENDBRANCH   7   8
ENDBRANCH   6   7
ENDBRANCH   5   6
ENDBRANCH   3   5
ENDBRANCH   1   3
TORSDOF 15
ENDMDL
MODEL 8
REMARK VINA RESULT:      -4.3     33.339     34.284
REMARK  15 active torsions:
REMARK  status: ('A' for Active; 'I' for Inactive)
REMARK    1  A    between atoms: O_1  and  C_18 
REMARK    2  A    between atoms: C_3  and  C_4 
REMARK    3  A    between atoms: C_3  and  C_5 
REMARK    4  A    between atoms: C_4  and  C_6 
REMARK    5  A    between atoms: C_5  and  C_7 
REMARK    6  A    between atoms: C_6  and  C_8 
REMARK    7  A    between atoms: C_7  and  C_9 
REMARK    8  A    between atoms: C_8  and  C_10 
REMARK    9  A    between atoms: C_9  and  C_11 
REMARK   10  A    between atoms: C_10  and  C_12 
REMARK   11  A    between atoms: C_11  and  C_13 
REMARK   12  A    between atoms: C_12  and  C_14 
REMARK   13  A    between atoms: C_13  and  C_15 
REMARK   14  A    between atoms: C_14  and  C_16 
REMARK   15  A    between atoms: C_16  and  C_18 
ROOT
HETATM    1  O   UNL     1     -37.165  -3.678 -10.633  1.00  0.00    -0.776 OA
HETATM    2  H   UNL     1     -37.740  -3.364  -9.921  1.00  0.00     0.167 HD
ENDROOT
BRANCH   1   3
HETATM    3  C   UNL     1     -37.578  -4.620 -11.507  1.00  0.00     0.139 C 
HETATM    4  O   UNL     1     -37.593  -4.372 -12.705  1.00  0.00    -0.650 OA
BRANCH   3   5
HETATM    5  C   UNL     1     -38.012  -5.964 -10.982  1.00  0.00     0.110 C 
BRANCH   5   6
HETATM    6  C   UNL     1     -37.356  -6.327  -9.641  1.00  0.00     0.010 C 
BRANCH   6   7
HETATM    7  C   UNL     1     -36.323  -7.446  -9.819  1.00  0.00     0.001 C 
BRANCH   7   8
HETATM    8  C   UNL     1     -36.575  -8.225 -11.116  1.00  0.00     0.000 C 
BRANCH   8   9
HETATM    9  C   UNL     1     -35.355  -9.073 -11.494  1.00  0.00     0.000 C 
BRANCH   9  10
HETATM   10  C   UNL     1     -35.195  -9.161 -13.016  1.00  0.00     0.000 C 
BRANCH  10  11
HETATM   11  C   UNL     1     -34.681  -7.836 -13.592  1.00  0.00     0.000 C 
BRANCH  11  12
HETATM   12  C   UNL     1     -35.671  -7.255 -14.609  1.00  0.00     0.000 C 
BRANCH  12  13
HETATM   13  C   UNL     1     -35.169  -7.456 -16.043  1.00  0.00     0.000 C 
BRANCH  13  14
HETATM   14  C   UNL     1     -36.189  -8.242 -16.877  1.00  0.00     0.000 C 
BRANCH  14  15
HETATM   15  C   UNL     1     -35.820  -8.215 -18.365  1.00  0.00     0.000 C 
BRANCH  15  16
HETATM   16  C   UNL     1     -36.206  -6.876 -19.004  1.00  0.00     0.000 C 
BRANCH  16  17
HETATM   17  C   UNL     1     -37.636  -6.476 -18.620  1.00  0.00    -0.000 C 
BRANCH  17  18
HETATM   18  C   UNL     1     -37.718  -4.983 -18.283  1.00  0.00    -0.005 C 
HETATM   19  C   UNL     1     -37.612  -4.752 -16.778  1.00  0.00     0.005 C 
ENDBRANCH  17  18
ENDBRANCH  16  17
ENDBRANCH  15  16
ENDBRANCH  14  15
ENDBRANCH  13  14
ENDBRANCH  12  13
ENDBRANCH  11  12
ENDBRANCH  10  11
ENDBRANCH   9  10
ENDBRANCH   8   9
ENDBRANCH   7   8
ENDBRANCH   6   7
ENDBRANCH   5   6
ENDBRANCH   3   5
ENDBRANCH   1   3
TORSDOF 15
ENDMDL
MODEL 9
REMARK VINA RESULT:      -4.3     33.038     34.327
REMARK  15 active torsions:
REMARK  status: ('A' for Active; 'I' for Inactive)
REMARK    1  A    between atoms: O_1  and  C_18 
REMARK    2  A    between atoms: C_3  and  C_4 
REMARK    3  A    between atoms: C_3  and  C_5 
REMARK    4  A    between atoms: C_4  and  C_6 
REMARK    5  A    between atoms: C_5  and  C_7 
REMARK    6  A    between atoms: C_6  and  C_8 
REMARK    7  A    between atoms: C_7  and  C_9 
REMARK    8  A    between atoms: C_8  and  C_10 
REMARK    9  A    between atoms: C_9  and  C_11 
REMARK   10  A    between atoms: C_10  and  C_12 
REMARK   11  A    between atoms: C_11  and  C_13 
REMARK   12  A    between atoms: C_12  and  C_14 
REMARK   13  A    between atoms: C_13  and  C_15 
REMARK   14  A    between atoms: C_14  and  C_16 
REMARK   15  A    between atoms: C_16  and  C_18 
ROOT
HETATM    1  O   UNL     1     -38.439  -3.959 -15.865  1.00  0.00    -0.776 OA
HETATM    2  H   UNL     1     -39.383  -3.751 -15.818  1.00  0.00     0.167 HD
ENDROOT
BRANCH   1   3
HETATM    3  C   UNL     1     -37.860  -4.807 -14.990  1.00  0.00     0.139 C 
HETATM    4  O   UNL     1     -37.528  -4.406 -13.883  1.00  0.00    -0.650 OA
BRANCH   3   5
HETATM    5  C   UNL     1     -37.636  -6.240 -15.400  1.00  0.00     0.110 C 
BRANCH   5   6
HETATM    6  C   UNL     1     -36.613  -6.389 -16.537  1.00  0.00     0.010 C 
BRANCH   6   7
HETATM    7  C   UNL     1     -35.223  -6.724 -15.985  1.00  0.00     0.001 C 
BRANCH   7   8
HETATM    8  C   UNL     1     -35.327  -7.532 -14.685  1.00  0.00     0.000 C 
BRANCH   8   9
HETATM    9  C   UNL     1     -34.197  -8.563 -14.586  1.00  0.00     0.000 C 
BRANCH   9  10
HETATM   10  C   UNL     1     -34.481  -9.778 -15.478  1.00  0.00     0.000 C 
BRANCH  10  11
HETATM   11  C   UNL     1     -35.961 -10.172 -15.416  1.00  0.00     0.000 C 
BRANCH  11  12
HETATM   12  C   UNL     1     -36.558 -10.296 -16.823  1.00  0.00     0.000 C 
BRANCH  12  13
HETATM   13  C   UNL     1     -35.488 -10.068 -17.897  1.00  0.00     0.000 C 
BRANCH  13  14
HETATM   14  C   UNL     1     -35.997  -9.115 -18.986  1.00  0.00     0.000 C 
BRANCH  14  15
HETATM   15  C   UNL     1     -34.893  -8.147 -19.430  1.00  0.00     0.000 C 
BRANCH  15  16
HETATM   16  C   UNL     1     -35.347  -7.309 -20.630  1.00  0.00     0.000 C 
BRANCH  16  17
HETATM   17  C   UNL     1     -36.423  -6.296 -20.218  1.00  0.00    -0.000 C 
BRANCH  17  18
HETATM   18  C   UNL     1     -37.015  -5.593 -21.445  1.00  0.00    -0.005 C 
HETATM   19  C   UNL     1     -37.785  -4.338 -21.043  1.00  0.00     0.005 C 
ENDBRANCH  17  18
ENDBRANCH  16  17
ENDBRANCH  15  16
ENDBRANCH  14  15
ENDBRANCH  13  14
ENDBRANCH  12  13
ENDBRANCH  11  12
ENDBRANCH  10  11
ENDBRANCH   9  10
ENDBRANCH   8   9
ENDBRANCH   7   8
ENDBRANCH   6   7
ENDBRANCH   5   6
ENDBRANCH   3   5
ENDBRANCH   1   3
TORSDOF 15
ENDMDL
MODEL 10
REMARK VINA RESULT:      -4.3     33.822     35.549
REMARK  15 active torsions:
REMARK  status: ('A' for Active; 'I' for Inactive)
REMARK    1  A    between atoms: O_1  and  C_18 
REMARK    2  A    between atoms: C_3  and  C_4 
REMARK    3  A    between atoms: C_3  and  C_5 
REMARK    4  A    between atoms: C_4  and  C_6 
REMARK    5  A    between atoms: C_5  and  C_7 
REMARK    6  A    between atoms: C_6  and  C_8 
REMARK    7  A    between atoms: C_7  and  C_9 
REMARK    8  A    between atoms: C_8  and  C_10 
REMARK    9  A    between atoms: C_9  and  C_11 
REMARK   10  A    between atoms: C_10  and  C_12 
REMARK   11  A    between atoms: C_11  and  C_13 
REMARK   12  A    between atoms: C_12  and  C_14 
REMARK   13  A    between atoms: C_13  and  C_15 
REMARK   14  A    between atoms: C_14  and  C_16 
REMARK   15  A    between atoms: C_16  and  C_18 
ROOT
HETATM    1  O   UNL     1     -37.428  -3.554 -20.799  1.00  0.00    -0.776 OA
HETATM    2  H   UNL     1     -37.481  -3.458 -21.760  1.00  0.00     0.167 HD
ENDROOT
BRANCH   1   3
HETATM    3  C   UNL     1     -37.113  -4.735 -20.225  1.00  0.00     0.139 C 
HETATM    4  O   UNL     1     -36.320  -5.485 -20.775  1.00  0.00    -0.650 OA
BRANCH   3   5
HETATM    5  C   UNL     1     -37.752  -5.101 -18.910  1.00  0.00     0.110 C 
BRANCH   5   6
HETATM    6  C   UNL     1     -38.111  -6.591 -18.808  1.00  0.00     0.010 C 
BRANCH   6   7
HETATM    7  C   UNL     1     -37.252  -7.292 -17.750  1.00  0.00     0.001 C 
BRANCH   7   8
HETATM    8  C   UNL     1     -36.719  -6.288 -16.720  1.00  0.00     0.000 C 
BRANCH   8   9
HETATM    9  C   UNL     1     -37.618  -6.242 -15.479  1.00  0.00     0.000 C 
BRANCH   9  10
HETATM   10  C   UNL     1     -36.815  -6.534 -14.207  1.00  0.00     0.000 C 
BRANCH  10  11
HETATM   11  C   UNL     1     -35.938  -7.780 -14.383  1.00  0.00     0.000 C 
BRANCH  11  12
HETATM   12  C   UNL     1     -34.819  -7.819 -13.335  1.00  0.00     0.000 C 
BRANCH  12  13
HETATM   13  C   UNL     1     -34.927  -9.073 -12.461  1.00  0.00     0.000 C 
BRANCH  13  14
HETATM   14  C   UNL     1     -35.081  -8.701 -10.981  1.00  0.00     0.000 C 
BRANCH  14  15
HETATM   15  C   UNL     1     -35.329  -7.197 -10.815  1.00  0.00     0.000 C 
BRANCH  15  16
HETATM   16  C   UNL     1     -36.027  -6.898  -9.483  1.00  0.00     0.000 C 
BRANCH  16  17
HETATM   17  C   UNL     1     -37.533  -6.693  -9.684  1.00  0.00    -0.000 C 
BRANCH  17  18
HETATM   18  C   UNL     1     -37.812  -5.875 -10.951  1.00  0.00    -0.005 C 
HETATM   19  C   UNL     1     -37.547  -4.391 -10.717  1.00  0.00     0.005 C 
ENDBRANCH  17  18
ENDBRANCH  16  17
ENDBRANCH  15  16
ENDBRANCH  14  15
ENDBRANCH  13  14
ENDBRANCH  12  13
ENDBRANCH  11  12
ENDBRANCH  10  11
ENDBRANCH   9  10
ENDBRANCH   8   9
ENDBRANCH   7   8
ENDBRANCH   6   7
ENDBRANCH   5   6
ENDBRANCH   3   5
ENDBRANCH   1   3
TORSDOF 15
ENDMDL
MODEL 11
REMARK VINA RESULT:      -4.2     33.511     34.541
REMARK  15 active torsions:
REMARK  status: ('A' for Active; 'I' for Inactive)
REMARK    1  A    between atoms: O_1  and  C_18 
REMARK    2  A    between atoms: C_3  and  C_4 
REMARK    3  A    between atoms: C_3  and  C_5 
REMARK    4  A    between atoms: C_4  and  C_6 
REMARK    5  A    between atoms: C_5  and  C_7 
REMARK    6  A    between atoms: C_6  and  C_8 
REMARK    7  A    between atoms: C_7  and  C_9 
REMARK    8  A    between atoms: C_8  and  C_10 
REMARK    9  A    between atoms: C_9  and  C_11 
REMARK   10  A    between atoms: C_10  and  C_12 
REMARK   11  A    between atoms: C_11  and  C_13 
REMARK   12  A    between atoms: C_12  and  C_14 
REMARK   13  A    between atoms: C_13  and  C_15 
REMARK   14  A    between atoms: C_14  and  C_16 
REMARK   15  A    between atoms: C_16  and  C_18 
ROOT
HETATM    1  O   UNL     1     -34.339  -9.126 -15.799  1.00  0.00    -0.776 OA
HETATM    2  H   UNL     1     -35.181  -9.080 -16.272  1.00  0.00     0.167 HD
ENDROOT
BRANCH   1   3
HETATM    3  C   UNL     1     -34.173  -8.535 -14.597  1.00  0.00     0.139 C 
HETATM    4  O   UNL     1     -33.064  -8.145 -14.260  1.00  0.00    -0.650 OA
BRANCH   3   5
HETATM    5  C   UNL     1     -35.367  -8.369 -13.693  1.00  0.00     0.110 C 
BRANCH   5   6
HETATM    6  C   UNL     1     -35.173  -9.014 -12.312  1.00  0.00     0.010 C 
BRANCH   6   7
HETATM    7  C   UNL     1     -36.514  -9.468 -11.724  1.00  0.00     0.001 C 
BRANCH   7   8
HETATM    8  C   UNL     1     -36.660  -9.007 -10.269  1.00  0.00     0.000 C 
BRANCH   8   9
HETATM    9  C   UNL     1     -35.904  -7.695 -10.028  1.00  0.00     0.000 C 
BRANCH   9  10
HETATM   10  C   UNL     1     -36.502  -6.924  -8.845  1.00  0.00     0.000 C 
BRANCH  10  11
HETATM   11  C   UNL     1     -38.033  -6.881  -8.935  1.00  0.00     0.000 C 
BRANCH  11  12
HETATM   12  C   UNL     1     -38.490  -6.115 -10.182  1.00  0.00     0.000 C 
BRANCH  12  13
HETATM   13  C   UNL     1     -37.844  -4.727 -10.244  1.00  0.00     0.000 C 
BRANCH  13  14
HETATM   14  C   UNL     1     -37.694  -4.254 -11.695  1.00  0.00     0.000 C 
BRANCH  14  15
HETATM   15  C   UNL     1     -37.162  -5.380 -12.589  1.00  0.00     0.000 C 
BRANCH  15  16
HETATM   16  C   UNL     1     -37.998  -5.508 -13.868  1.00  0.00     0.000 C 
BRANCH  16  17
HETATM   17  C   UNL     1     -37.176  -5.120 -15.103  1.00  0.00    -0.000 C 
BRANCH  17  18
HETATM   18  C   UNL     1     -37.240  -6.216 -16.173  1.00  0.00    -0.005 C 
HETATM   19  C   UNL     1     -37.541  -5.627 -17.548  1.00  0.00     0.005 C 
ENDBRANCH  17  18
ENDBRANCH  16  17
ENDBRANCH  15  16
ENDBRANCH  14  15
ENDBRANCH  13  14
ENDBRANCH  12  13
ENDBRANCH  11  12
ENDBRANCH  10  11
ENDBRANCH   9  10
ENDBRANCH   8   9
ENDBRANCH   7   8
ENDBRANCH   6   7
ENDBRANCH   5   6
ENDBRANCH   3   5
ENDBRANCH   1   3
TORSDOF 15
ENDMDL
MODEL 12
REMARK VINA RESULT:      -4.2     34.811     36.374
REMARK  15 active torsions:
REMARK  status: ('A' for Active; 'I' for Inactive)
REMARK    1  A    between atoms: O_1  and  C_18 
REMARK    2  A    between atoms: C_3  and  C_4 
REMARK    3  A    between atoms: C_3  and  C_5 
REMARK    4  A    between atoms: C_4  and  C_6 
REMARK    5  A    between atoms: C_5  and  C_7 
REMARK    6  A    between atoms: C_6  and  C_8 
REMARK    7  A    between atoms: C_7  and  C_9 
REMARK    8  A    between atoms: C_8  and  C_10 
REMARK    9  A    between atoms: C_9  and  C_11 
REMARK   10  A    between atoms: C_10  and  C_12 
REMARK   11  A    between atoms: C_11  and  C_13 
REMARK   12  A    between atoms: C_12  and  C_14 
REMARK   13  A    between atoms: C_13  and  C_15 
REMARK   14  A    between atoms: C_14  and  C_16 
REMARK   15  A    between atoms: C_16  and  C_18 
ROOT
HETATM    1  O   UNL     1     -37.520  -3.574 -15.814  1.00  0.00    -0.776 OA
HETATM    2  H   UNL     1     -37.997  -3.138 -15.094  1.00  0.00     0.167 HD
ENDROOT
BRANCH   1   3
HETATM    3  C   UNL     1     -37.518  -4.917 -15.947  1.00  0.00     0.139 C 
HETATM    4  O   UNL     1     -37.822  -5.422 -17.018  1.00  0.00    -0.650 OA
BRANCH   3   5
HETATM    5  C   UNL     1     -37.139  -5.767 -14.762  1.00  0.00     0.110 C 
BRANCH   5   6
HETATM    6  C   UNL     1     -37.483  -5.113 -13.415  1.00  0.00     0.010 C 
BRANCH   6   7
HETATM    7  C   UNL     1     -37.491  -6.150 -12.287  1.00  0.00     0.001 C 
BRANCH   7   8
HETATM    8  C   UNL     1     -37.141  -5.502 -10.941  1.00  0.00     0.000 C 
BRANCH   8   9
HETATM    9  C   UNL     1     -36.356  -6.472 -10.050  1.00  0.00     0.000 C 
BRANCH   9  10
HETATM   10  C   UNL     1     -37.216  -6.962  -8.879  1.00  0.00     0.000 C 
BRANCH  10  11
HETATM   11  C   UNL     1     -36.459  -7.993  -8.034  1.00  0.00     0.000 C 
BRANCH  11  12
HETATM   12  C   UNL     1     -35.167  -7.397  -7.463  1.00  0.00     0.000 C 
BRANCH  12  13
HETATM   13  C   UNL     1     -35.462  -6.489  -6.265  1.00  0.00     0.000 C 
BRANCH  13  14
HETATM   14  C   UNL     1     -35.999  -7.300  -5.079  1.00  0.00     0.000 C 
BRANCH  14  15
HETATM   15  C   UNL     1     -37.146  -6.560  -4.380  1.00  0.00     0.000 C 
BRANCH  15  16
HETATM   16  C   UNL     1     -38.337  -6.373  -5.327  1.00  0.00     0.000 C 
BRANCH  16  17
HETATM   17  C   UNL     1     -39.468  -7.351  -4.988  1.00  0.00    -0.000 C 
BRANCH  17  18
HETATM   18  C   UNL     1     -39.277  -8.687  -5.716  1.00  0.00    -0.005 C 
HETATM   19  C   UNL     1     -39.955  -8.670  -7.084  1.00  0.00     0.005 C 
ENDBRANCH  17  18
ENDBRANCH  16  17
ENDBRANCH  15  16
ENDBRANCH  14  15
ENDBRANCH  13  14
ENDBRANCH  12  13
ENDBRANCH  11  12
ENDBRANCH  10  11
ENDBRANCH   9  10
ENDBRANCH   8   9
ENDBRANCH   7   8
ENDBRANCH   6   7
ENDBRANCH   5   6
ENDBRANCH   3   5
ENDBRANCH   1   3
TORSDOF 15
ENDMDL
MODEL 13
REMARK VINA RESULT:      -4.2     34.859     36.429
REMARK  15 active torsions:
REMARK  status: ('A' for Active; 'I' for Inactive)
REMARK    1  A    between atoms: O_1  and  C_18 
REMARK    2  A    between atoms: C_3  and  C_4 
REMARK    3  A    between atoms: C_3  and  C_5 
REMARK    4  A    between atoms: C_4  and  C_6 
REMARK    5  A    between atoms: C_5  and  C_7 
REMARK    6  A    between atoms: C_6  and  C_8 
REMARK    7  A    between atoms: C_7  and  C_9 
REMARK    8  A    between atoms: C_8  and  C_10 
REMARK    9  A    between atoms: C_9  and  C_11 
REMARK   10  A    between atoms: C_10  and  C_12 
REMARK   11  A    between atoms: C_11  and  C_13 
REMARK   12  A    between atoms: C_12  and  C_14 
REMARK   13  A    between atoms: C_13  and  C_15 
REMARK   14  A    between atoms: C_14  and  C_16 
REMARK   15  A    between atoms: C_16  and  C_18 
ROOT
HETATM    1  O   UNL     1     -40.844  -8.843 -13.211  1.00  0.00    -0.776 OA
HETATM    2  H   UNL     1     -41.781  -9.006 -13.035  1.00  0.00     0.167 HD
ENDROOT
BRANCH   1   3
HETATM    3  C   UNL     1     -40.433  -8.278 -14.367  1.00  0.00     0.139 C 
HETATM    4  O   UNL     1     -41.220  -8.150 -15.294  1.00  0.00    -0.650 OA
BRANCH   3   5
HETATM    5  C   UNL     1     -39.004  -7.816 -14.486  1.00  0.00     0.110 C 
BRANCH   5   6
HETATM    6  C   UNL     1     -38.877  -6.378 -15.011  1.00  0.00     0.010 C 
BRANCH   6   7
HETATM    7  C   UNL     1     -37.693  -5.657 -14.357  1.00  0.00     0.001 C 
BRANCH   7   8
HETATM    8  C   UNL     1     -37.513  -6.103 -12.901  1.00  0.00     0.000 C 
BRANCH   8   9
HETATM    9  C   UNL     1     -37.619  -4.911 -11.942  1.00  0.00     0.000 C 
BRANCH   9  10
HETATM   10  C   UNL     1     -36.868  -5.187 -10.635  1.00  0.00     0.000 C 
BRANCH  10  11
HETATM   11  C   UNL     1     -35.832  -6.303 -10.821  1.00  0.00     0.000 C 
BRANCH  11  12
HETATM   12  C   UNL     1     -36.043  -7.427  -9.800  1.00  0.00     0.000 C 
BRANCH  12  13
HETATM   13  C   UNL     1     -34.707  -7.899  -9.217  1.00  0.00     0.000 C 
BRANCH  13  14
HETATM   14  C   UNL     1     -34.657  -7.671  -7.701  1.00  0.00     0.000 C 
BRANCH  14  15
HETATM   15  C   UNL     1     -36.063  -7.450  -7.131  1.00  0.00     0.000 C 
BRANCH  15  16
HETATM   16  C   UNL     1     -36.123  -6.164  -6.298  1.00  0.00     0.000 C 
BRANCH  16  17
HETATM   17  C   UNL     1     -37.564  -5.653  -6.179  1.00  0.00    -0.000 C 
BRANCH  17  18
HETATM   18  C   UNL     1     -37.687  -4.610  -5.062  1.00  0.00    -0.005 C 
HETATM   19  C   UNL     1     -37.649  -5.270  -3.686  1.00  0.00     0.005 C 
ENDBRANCH  17  18
ENDBRANCH  16  17
ENDBRANCH  15  16
ENDBRANCH  14  15
ENDBRANCH  13  14
ENDBRANCH  12  13
ENDBRANCH  11  12
ENDBRANCH  10  11
ENDBRANCH   9  10
ENDBRANCH   8   9
ENDBRANCH   7   8
ENDBRANCH   6   7
ENDBRANCH   5   6
ENDBRANCH   3   5
ENDBRANCH   1   3
TORSDOF 15
ENDMDL
MODEL 14
REMARK VINA RESULT:      -4.2     57.398     58.566
REMARK  15 active torsions:
REMARK  status: ('A' for Active; 'I' for Inactive)
REMARK    1  A    between atoms: O_1  and  C_18 
REMARK    2  A    between atoms: C_3  and  C_4 
REMARK    3  A    between atoms: C_3  and  C_5 
REMARK    4  A    between atoms: C_4  and  C_6 
REMARK    5  A    between atoms: C_5  and  C_7 
REMARK    6  A    between atoms: C_6  and  C_8 
REMARK    7  A    between atoms: C_7  and  C_9 
REMARK    8  A    between atoms: C_8  and  C_10 
REMARK    9  A    between atoms: C_9  and  C_11 
REMARK   10  A    between atoms: C_10  and  C_12 
REMARK   11  A    between atoms: C_11  and  C_13 
REMARK   12  A    between atoms: C_12  and  C_14 
REMARK   13  A    between atoms: C_13  and  C_15 
REMARK   14  A    between atoms: C_14  and  C_16 
REMARK   15  A    between atoms: C_16  and  C_18 
ROOT
HETATM    1  O   UNL     1     -54.084  19.131 -12.873  1.00  0.00    -0.776 OA
HETATM    2  H   UNL     1     -54.050  18.543 -12.106  1.00  0.00     0.167 HD
ENDROOT
BRANCH   1   3
HETATM    3  C   UNL     1     -54.806  20.271 -12.856  1.00  0.00     0.139 C 
HETATM    4  O   UNL     1     -55.969  20.247 -12.478  1.00  0.00    -0.650 OA
BRANCH   3   5
HETATM    5  C   UNL     1     -54.157  21.554 -13.305  1.00  0.00     0.110 C 
BRANCH   5   6
HETATM    6  C   UNL     1     -53.991  21.645 -14.830  1.00  0.00     0.010 C 
BRANCH   6   7
HETATM    7  C   UNL     1     -52.509  21.647 -15.222  1.00  0.00     0.001 C 
BRANCH   7   8
HETATM    8  C   UNL     1     -52.337  21.392 -16.724  1.00  0.00     0.000 C 
BRANCH   8   9
HETATM    9  C   UNL     1     -52.671  19.938 -17.078  1.00  0.00     0.000 C 
BRANCH   9  10
HETATM   10  C   UNL     1     -52.183  19.588 -18.488  1.00  0.00     0.000 C 
BRANCH  10  11
HETATM   11  C   UNL     1     -51.697  20.841 -19.228  1.00  0.00     0.000 C 
BRANCH  11  12
HETATM   12  C   UNL     1     -52.475  21.046 -20.534  1.00  0.00     0.000 C 
BRANCH  12  13
HETATM   13  C   UNL     1     -52.456  19.776 -21.391  1.00  0.00     0.000 C 
BRANCH  13  14
HETATM   14  C   UNL     1     -53.143  20.013 -22.741  1.00  0.00     0.000 C 
BRANCH  14  15
HETATM   15  C   UNL     1     -52.366  21.031 -23.584  1.00  0.00     0.000 C 
BRANCH  15  16
HETATM   16  C   UNL     1     -53.314  22.038 -24.244  1.00  0.00     0.000 C 
BRANCH  16  17
HETATM   17  C   UNL     1     -52.750  22.531 -25.582  1.00  0.00    -0.000 C 
BRANCH  17  18
HETATM   18  C   UNL     1     -52.757  21.409 -26.627  1.00  0.00    -0.005 C 
HETATM   19  C   UNL     1     -54.180  20.955 -26.939  1.00  0.00     0.005 C 
ENDBRANCH  17  18
ENDBRANCH  16  17
ENDBRANCH  15  16
ENDBRANCH  14  15
ENDBRANCH  13  14
ENDBRANCH  12  13
ENDBRANCH  11  12
ENDBRANCH  10  11
ENDBRANCH   9  10
ENDBRANCH   8   9
ENDBRANCH   7   8
ENDBRANCH   6   7
ENDBRANCH   5   6
ENDBRANCH   3   5
ENDBRANCH   1   3
TORSDOF 15
ENDMDL
MODEL 15
REMARK VINA RESULT:      -4.2     33.814     35.364
REMARK  15 active torsions:
REMARK  status: ('A' for Active; 'I' for Inactive)
REMARK    1  A    between atoms: O_1  and  C_18 
REMARK    2  A    between atoms: C_3  and  C_4 
REMARK    3  A    between atoms: C_3  and  C_5 
REMARK    4  A    between atoms: C_4  and  C_6 
REMARK    5  A    between atoms: C_5  and  C_7 
REMARK    6  A    between atoms: C_6  and  C_8 
REMARK    7  A    between atoms: C_7  and  C_9 
REMARK    8  A    between atoms: C_8  and  C_10 
REMARK    9  A    between atoms: C_9  and  C_11 
REMARK   10  A    between atoms: C_10  and  C_12 
REMARK   11  A    between atoms: C_11  and  C_13 
REMARK   12  A    between atoms: C_12  and  C_14 
REMARK   13  A    between atoms: C_13  and  C_15 
REMARK   14  A    between atoms: C_14  and  C_16 
REMARK   15  A    between atoms: C_16  and  C_18 
ROOT
HETATM    1  O   UNL     1     -34.241  -9.517 -11.571  1.00  0.00    -0.776 OA
HETATM    2  H   UNL     1     -34.193 -10.443 -11.294  1.00  0.00     0.167 HD
ENDROOT
BRANCH   1   3
HETATM    3  C   UNL     1     -35.414  -8.946 -11.917  1.00  0.00     0.139 C 
HETATM    4  O   UNL     1     -36.467  -9.494 -11.624  1.00  0.00    -0.650 OA
BRANCH   3   5
HETATM    5  C   UNL     1     -35.397  -7.635 -12.661  1.00  0.00     0.110 C 
BRANCH   5   6
HETATM    6  C   UNL     1     -35.925  -6.460 -11.824  1.00  0.00     0.010 C 
BRANCH   6   7
HETATM    7  C   UNL     1     -37.187  -5.860 -12.455  1.00  0.00     0.001 C 
BRANCH   7   8
HETATM    8  C   UNL     1     -37.688  -4.657 -11.646  1.00  0.00     0.000 C 
BRANCH   8   9
HETATM    9  C   UNL     1     -37.736  -4.982 -10.148  1.00  0.00     0.000 C 
BRANCH   9  10
HETATM   10  C   UNL     1     -38.701  -6.140  -9.868  1.00  0.00     0.000 C 
BRANCH  10  11
HETATM   11  C   UNL     1     -38.152  -7.061  -8.772  1.00  0.00     0.000 C 
BRANCH  11  12
HETATM   12  C   UNL     1     -36.789  -6.569  -8.270  1.00  0.00     0.000 C 
BRANCH  12  13
HETATM   13  C   UNL     1     -35.739  -7.682  -8.347  1.00  0.00     0.000 C 
BRANCH  13  14
HETATM   14  C   UNL     1     -34.750  -7.588  -7.179  1.00  0.00     0.000 C 
BRANCH  14  15
HETATM   15  C   UNL     1     -35.276  -6.649  -6.086  1.00  0.00     0.000 C 
BRANCH  15  16
HETATM   16  C   UNL     1     -35.534  -7.414  -4.783  1.00  0.00     0.000 C 
BRANCH  16  17
HETATM   17  C   UNL     1     -37.028  -7.711  -4.606  1.00  0.00    -0.000 C 
BRANCH  17  18
HETATM   18  C   UNL     1     -37.848  -6.416  -4.582  1.00  0.00    -0.005 C 
HETATM   19  C   UNL     1     -37.642  -5.657  -3.274  1.00  0.00     0.005 C 
ENDBRANCH  17  18
ENDBRANCH  16  17
ENDBRANCH  15  16
ENDBRANCH  14  15
ENDBRANCH  13  14
ENDBRANCH  12  13
ENDBRANCH  11  12
ENDBRANCH  10  11
ENDBRANCH   9  10
ENDBRANCH   8   9
ENDBRANCH   7   8
ENDBRANCH   6   7
ENDBRANCH   5   6
ENDBRANCH   3   5
ENDBRANCH   1   3
TORSDOF 15
ENDMDL
MODEL 16
REMARK VINA RESULT:      -4.2     33.184     34.296
REMARK  15 active torsions:
REMARK  status: ('A' for Active; 'I' for Inactive)
REMARK    1  A    between atoms: O_1  and  C_18 
REMARK    2  A    between atoms: C_3  and  C_4 
REMARK    3  A    between atoms: C_3  and  C_5 
REMARK    4  A    between atoms: C_4  and  C_6 
REMARK    5  A    between atoms: C_5  and  C_7 
REMARK    6  A    between atoms: C_6  and  C_8 
REMARK    7  A    between atoms: C_7  and  C_9 
REMARK    8  A    between atoms: C_8  and  C_10 
REMARK    9  A    between atoms: C_9  and  C_11 
REMARK   10  A    between atoms: C_10  and  C_12 
REMARK   11  A    between atoms: C_11  and  C_13 
REMARK   12  A    between atoms: C_12  and  C_14 
REMARK   13  A    between atoms: C_13  and  C_15 
REMARK   14  A    between atoms: C_14  and  C_16 
REMARK   15  A    between atoms: C_16  and  C_18 
ROOT
HETATM    1  O   UNL     1     -36.397  -9.726 -11.690  1.00  0.00    -0.776 OA
HETATM    2  H   UNL     1     -37.074 -10.035 -12.308  1.00  0.00     0.167 HD
ENDROOT
BRANCH   1   3
HETATM    3  C   UNL     1     -35.333  -9.010 -12.111  1.00  0.00     0.139 C 
HETATM    4  O   UNL     1     -34.212  -9.495 -12.050  1.00  0.00    -0.650 OA
BRANCH   3   5
HETATM    5  C   UNL     1     -35.555  -7.621 -12.652  1.00  0.00     0.110 C 
BRANCH   5   6
HETATM    6  C   UNL     1     -36.524  -6.790 -11.798  1.00  0.00     0.010 C 
BRANCH   6   7
HETATM    7  C   UNL     1     -37.636  -6.183 -12.661  1.00  0.00     0.001 C 
BRANCH   7   8
HETATM    8  C   UNL     1     -37.182  -6.037 -14.119  1.00  0.00     0.000 C 
BRANCH   8   9
HETATM    9  C   UNL     1     -37.600  -4.678 -14.693  1.00  0.00     0.000 C 
BRANCH   9  10
HETATM   10  C   UNL     1     -37.697  -4.733 -16.222  1.00  0.00     0.000 C 
BRANCH  10  11
HETATM   11  C   UNL     1     -37.736  -6.183 -16.719  1.00  0.00     0.000 C 
BRANCH  11  12
HETATM   12  C   UNL     1     -36.354  -6.638 -17.200  1.00  0.00     0.000 C 
BRANCH  12  13
HETATM   13  C   UNL     1     -36.474  -7.615 -18.375  1.00  0.00     0.000 C 
BRANCH  13  14
HETATM   14  C   UNL     1     -35.098  -7.920 -18.980  1.00  0.00     0.000 C 
BRANCH  14  15
HETATM   15  C   UNL     1     -35.127  -7.791 -20.508  1.00  0.00     0.000 C 
BRANCH  15  16
HETATM   16  C   UNL     1     -35.562  -6.384 -20.933  1.00  0.00     0.000 C 
BRANCH  16  17
HETATM   17  C   UNL     1     -36.811  -6.439 -21.821  1.00  0.00    -0.000 C 
BRANCH  17  18
HETATM   18  C   UNL     1     -37.757  -5.273 -21.512  1.00  0.00    -0.005 C 
HETATM   19  C   UNL     1     -37.263  -4.464 -20.316  1.00  0.00     0.005 C 
ENDBRANCH  17  18
ENDBRANCH  16  17
ENDBRANCH  15  16
ENDBRANCH  14  15
ENDBRANCH  13  14
ENDBRANCH  12  13
ENDBRANCH  11  12
ENDBRANCH  10  11
ENDBRANCH   9  10
ENDBRANCH   8   9
ENDBRANCH   7   8
ENDBRANCH   6   7
ENDBRANCH   5   6
ENDBRANCH   3   5
ENDBRANCH   1   3
TORSDOF 15
ENDMDL
MODEL 17
REMARK VINA RESULT:      -4.1     34.780     35.801
REMARK  15 active torsions:
REMARK  status: ('A' for Active; 'I' for Inactive)
REMARK    1  A    between atoms: O_1  and  C_18 
REMARK    2  A    between atoms: C_3  and  C_4 
REMARK    3  A    between atoms: C_3  and  C_5 
REMARK    4  A    between atoms: C_4  and  C_6 
REMARK    5  A    between atoms: C_5  and  C_7 
REMARK    6  A    between atoms: C_6  and  C_8 
REMARK    7  A    between atoms: C_7  and  C_9 
REMARK    8  A    between atoms: C_8  and  C_10 
REMARK    9  A    between atoms: C_9  and  C_11 
REMARK   10  A    between atoms: C_10  and  C_12 
REMARK   11  A    between atoms: C_11  and  C_13 
REMARK   12  A    between atoms: C_12  and  C_14 
REMARK   13  A    between atoms: C_13  and  C_15 
REMARK   14  A    between atoms: C_14  and  C_16 
REMARK   15  A    between atoms: C_16  and  C_18 
ROOT
HETATM    1  O   UNL     1     -26.028  17.301  -7.885  1.00  0.00    -0.776 OA
HETATM    2  H   UNL     1     -26.721  17.556  -8.509  1.00  0.00     0.167 HD
ENDROOT
BRANCH   1   3
HETATM    3  C   UNL     1     -25.625  16.017  -7.766  1.00  0.00     0.139 C 
HETATM    4  O   UNL     1     -24.437  15.765  -7.626  1.00  0.00    -0.650 OA
BRANCH   3   5
HETATM    5  C   UNL     1     -26.658  14.921  -7.809  1.00  0.00     0.110 C 
BRANCH   5   6
HETATM    6  C   UNL     1     -26.266  13.760  -8.736  1.00  0.00     0.010 C 
BRANCH   6   7
HETATM    7  C   UNL     1     -26.038  14.254 -10.169  1.00  0.00     0.001 C 
BRANCH   7   8
HETATM    8  C   UNL     1     -26.479  13.199 -11.192  1.00  0.00     0.000 C 
BRANCH   8   9
HETATM    9  C   UNL     1     -27.532  13.769 -12.150  1.00  0.00     0.000 C 
BRANCH   9  10
HETATM   10  C   UNL     1     -28.903  13.859 -11.470  1.00  0.00     0.000 C 
BRANCH  10  11
HETATM   11  C   UNL     1     -29.475  15.278 -11.572  1.00  0.00     0.000 C 
BRANCH  11  12
HETATM   12  C   UNL     1     -29.210  16.072 -10.288  1.00  0.00     0.000 C 
BRANCH  12  13
HETATM   13  C   UNL     1     -28.253  17.241 -10.551  1.00  0.00     0.000 C 
BRANCH  13  14
HETATM   14  C   UNL     1     -28.813  18.178 -11.628  1.00  0.00     0.000 C 
BRANCH  14  15
HETATM   15  C   UNL     1     -29.210  19.532 -11.027  1.00  0.00     0.000 C 
BRANCH  15  16
HETATM   16  C   UNL     1     -30.694  19.549 -10.642  1.00  0.00     0.000 C 
BRANCH  16  17
HETATM   17  C   UNL     1     -30.868  19.711  -9.127  1.00  0.00    -0.000 C 
BRANCH  17  18
HETATM   18  C   UNL     1     -29.581  20.233  -8.479  1.00  0.00    -0.005 C 
HETATM   19  C   UNL     1     -29.070  19.267  -7.413  1.00  0.00     0.005 C 
ENDBRANCH  17  18
ENDBRANCH  16  17
ENDBRANCH  15  16
ENDBRANCH  14  15
ENDBRANCH  13  14
ENDBRANCH  12  13
ENDBRANCH  11  12
ENDBRANCH  10  11
ENDBRANCH   9  10
ENDBRANCH   8   9
ENDBRANCH   7   8
ENDBRANCH   6   7
ENDBRANCH   5   6
ENDBRANCH   3   5
ENDBRANCH   1   3
TORSDOF 15
ENDMDL
MODEL 18
REMARK VINA RESULT:      -4.1     34.314     35.918
REMARK  15 active torsions:
REMARK  status: ('A' for Active; 'I' for Inactive)
REMARK    1  A    between atoms: O_1  and  C_18 
REMARK    2  A    between atoms: C_3  and  C_4 
REMARK    3  A    between atoms: C_3  and  C_5 
REMARK    4  A    between atoms: C_4  and  C_6 
REMARK    5  A    between atoms: C_5  and  C_7 
REMARK    6  A    between atoms: C_6  and  C_8 
REMARK    7  A    between atoms: C_7  and  C_9 
REMARK    8  A    between atoms: C_8  and  C_10 
REMARK    9  A    between atoms: C_9  and  C_11 
REMARK   10  A    between atoms: C_10  and  C_12 
REMARK   11  A    between atoms: C_11  and  C_13 
REMARK   12  A    between atoms: C_12  and  C_14 
REMARK   13  A    between atoms: C_13  and  C_15 
REMARK   14  A    between atoms: C_14  and  C_16 
REMARK   15  A    between atoms: C_16  and  C_18 
ROOT
HETATM    1  O   UNL     1     -40.400  -9.961 -15.495  1.00  0.00    -0.776 OA
HETATM    2  H   UNL     1     -40.782 -10.505 -16.197  1.00  0.00     0.167 HD
ENDROOT
BRANCH   1   3
HETATM    3  C   UNL     1     -40.222  -8.632 -15.651  1.00  0.00     0.139 C 
HETATM    4  O   UNL     1     -40.919  -7.847 -15.024  1.00  0.00    -0.650 OA
BRANCH   3   5
HETATM    5  C   UNL     1     -39.159  -8.144 -16.602  1.00  0.00     0.110 C 
BRANCH   5   6
HETATM    6  C   UNL     1     -38.573  -9.264 -17.476  1.00  0.00     0.010 C 
BRANCH   6   7
HETATM    7  C   UNL     1     -37.944  -8.692 -18.752  1.00  0.00     0.001 C 
BRANCH   7   8
HETATM    8  C   UNL     1     -37.771  -7.172 -18.646  1.00  0.00     0.000 C 
BRANCH   8   9
HETATM    9  C   UNL     1     -36.324  -6.760 -18.944  1.00  0.00     0.000 C 
BRANCH   9  10
HETATM   10  C   UNL     1     -35.335  -7.798 -18.402  1.00  0.00     0.000 C 
BRANCH  10  11
HETATM   11  C   UNL     1     -34.726  -7.335 -17.073  1.00  0.00     0.000 C 
BRANCH  11  12
HETATM   12  C   UNL     1     -35.191  -8.226 -15.914  1.00  0.00     0.000 C 
BRANCH  12  13
HETATM   13  C   UNL     1     -35.962  -7.412 -14.869  1.00  0.00     0.000 C 
BRANCH  13  14
HETATM   14  C   UNL     1     -36.270  -6.002 -15.389  1.00  0.00     0.000 C 
BRANCH  14  15
HETATM   15  C   UNL     1     -37.501  -5.414 -14.687  1.00  0.00     0.000 C 
BRANCH  15  16
HETATM   16  C   UNL     1     -37.666  -6.001 -13.281  1.00  0.00     0.000 C 
BRANCH  16  17
HETATM   17  C   UNL     1     -37.626  -4.899 -12.216  1.00  0.00    -0.000 C 
BRANCH  17  18
HETATM   18  C   UNL     1     -36.875  -5.370 -10.965  1.00  0.00    -0.005 C 
HETATM   19  C   UNL     1     -35.846  -6.442 -11.312  1.00  0.00     0.005 C 
ENDBRANCH  17  18
ENDBRANCH  16  17
ENDBRANCH  15  16
ENDBRANCH  14  15
ENDBRANCH  13  14
ENDBRANCH  12  13
ENDBRANCH  11  12
ENDBRANCH  10  11
ENDBRANCH   9  10
ENDBRANCH   8   9
ENDBRANCH   7   8
ENDBRANCH   6   7
ENDBRANCH   5   6
ENDBRANCH   3   5
ENDBRANCH   1   3
TORSDOF 15
ENDMDL
MODEL 19
REMARK VINA RESULT:      -4.1     34.429     35.076
REMARK  15 active torsions:
REMARK  status: ('A' for Active; 'I' for Inactive)
REMARK    1  A    between atoms: O_1  and  C_18 
REMARK    2  A    between atoms: C_3  and  C_4 
REMARK    3  A    between atoms: C_3  and  C_5 
REMARK    4  A    between atoms: C_4  and  C_6 
REMARK    5  A    between atoms: C_5  and  C_7 
REMARK    6  A    between atoms: C_6  and  C_8 
REMARK    7  A    between atoms: C_7  and  C_9 
REMARK    8  A    between atoms: C_8  and  C_10 
REMARK    9  A    between atoms: C_9  and  C_11 
REMARK   10  A    between atoms: C_10  and  C_12 
REMARK   11  A    between atoms: C_11  and  C_13 
REMARK   12  A    between atoms: C_12  and  C_14 
REMARK   13  A    between atoms: C_13  and  C_15 
REMARK   14  A    between atoms: C_14  and  C_16 
REMARK   15  A    between atoms: C_16  and  C_18 
ROOT
HETATM    1  O   UNL     1     -38.618  -5.749  -5.339  1.00  0.00    -0.776 OA
HETATM    2  H   UNL     1     -38.701  -6.018  -4.414  1.00  0.00     0.167 HD
ENDROOT
BRANCH   1   3
HETATM    3  C   UNL     1     -37.412  -5.650  -5.938  1.00  0.00     0.139 C 
HETATM    4  O   UNL     1     -36.820  -4.580  -5.937  1.00  0.00    -0.650 OA
BRANCH   3   5
HETATM    5  C   UNL     1     -36.820  -6.870  -6.596  1.00  0.00     0.110 C 
BRANCH   5   6
HETATM    6  C   UNL     1     -36.547  -6.673  -8.095  1.00  0.00     0.010 C 
BRANCH   6   7
HETATM    7  C   UNL     1     -37.802  -6.179  -8.822  1.00  0.00     0.001 C 
BRANCH   7   8
HETATM    8  C   UNL     1     -37.565  -4.801  -9.452  1.00  0.00     0.000 C 
BRANCH   8   9
HETATM    9  C   UNL     1     -37.903  -4.814 -10.948  1.00  0.00     0.000 C 
BRANCH   9  10
HETATM   10  C   UNL     1     -37.276  -6.029 -11.642  1.00  0.00     0.000 C 
BRANCH  10  11
HETATM   11  C   UNL     1     -38.283  -6.707 -12.579  1.00  0.00     0.000 C 
BRANCH  11  12
HETATM   12  C   UNL     1     -37.659  -6.984 -13.952  1.00  0.00     0.000 C 
BRANCH  12  13
HETATM   13  C   UNL     1     -36.933  -5.745 -14.487  1.00  0.00     0.000 C 
BRANCH  13  14
HETATM   14  C   UNL     1     -37.934  -4.672 -14.933  1.00  0.00     0.000 C 
BRANCH  14  15
HETATM   15  C   UNL     1     -37.778  -4.360 -16.427  1.00  0.00     0.000 C 
BRANCH  15  16
HETATM   16  C   UNL     1     -37.012  -5.477 -17.145  1.00  0.00     0.000 C 
BRANCH  16  17
HETATM   17  C   UNL     1     -37.657  -5.805 -18.496  1.00  0.00    -0.000 C 
BRANCH  17  18
HETATM   18  C   UNL     1     -37.239  -7.198 -18.981  1.00  0.00    -0.005 C 
HETATM   19  C   UNL     1     -37.097  -8.169 -17.812  1.00  0.00     0.005 C 
ENDBRANCH  17  18
ENDBRANCH  16  17
ENDBRANCH  15  16
ENDBRANCH  14  15
ENDBRANCH  13  14
ENDBRANCH  12  13
ENDBRANCH  11  12
ENDBRANCH  10  11
ENDBRANCH   9  10
ENDBRANCH   8   9
ENDBRANCH   7   8
ENDBRANCH   6   7
ENDBRANCH   5   6
ENDBRANCH   3   5
ENDBRANCH   1   3
TORSDOF 15
ENDMDL
MODEL 20
REMARK VINA RESULT:      -4.0     33.874     35.184
REMARK  15 active torsions:
REMARK  status: ('A' for Active; 'I' for Inactive)
REMARK    1  A    between atoms: O_1  and  C_18 
REMARK    2  A    between atoms: C_3  and  C_4 
REMARK    3  A    between atoms: C_3  and  C_5 
REMARK    4  A    between atoms: C_4  and  C_6 
REMARK    5  A    between atoms: C_5  and  C_7 
REMARK    6  A    between atoms: C_6  and  C_8 
REMARK    7  A    between atoms: C_7  and  C_9 
REMARK    8  A    between atoms: C_8  and  C_10 
REMARK    9  A    between atoms: C_9  and  C_11 
REMARK   10  A    between atoms: C_10  and  C_12 
REMARK   11  A    between atoms: C_11  and  C_13 
REMARK   12  A    between atoms: C_12  and  C_14 
REMARK   13  A    between atoms: C_13  and  C_15 
REMARK   14  A    between atoms: C_14  and  C_16 
REMARK   15  A    between atoms: C_16  and  C_18 
ROOT
HETATM    1  O   UNL     1     -25.581  17.816 -16.297  1.00  0.00    -0.776 OA
HETATM    2  H   UNL     1     -25.135  18.597 -16.655  1.00  0.00     0.167 HD
ENDROOT
BRANCH   1   3
HETATM    3  C   UNL     1     -26.432  17.085 -17.048  1.00  0.00     0.139 C 
HETATM    4  O   UNL     1     -27.376  17.631 -17.601  1.00  0.00    -0.650 OA
BRANCH   3   5
HETATM    5  C   UNL     1     -26.194  15.604 -17.189  1.00  0.00     0.110 C 
BRANCH   5   6
HETATM    6  C   UNL     1     -26.907  14.774 -16.111  1.00  0.00     0.010 C 
BRANCH   6   7
HETATM    7  C   UNL     1     -25.895  14.060 -15.209  1.00  0.00     0.001 C 
BRANCH   7   8
HETATM    8  C   UNL     1     -25.575  14.902 -13.967  1.00  0.00     0.000 C 
BRANCH   8   9
HETATM    9  C   UNL     1     -26.287  14.346 -12.727  1.00  0.00     0.000 C 
BRANCH   9  10
HETATM   10  C   UNL     1     -26.758  15.480 -11.810  1.00  0.00     0.000 C 
BRANCH  10  11
HETATM   11  C   UNL     1     -26.618  16.842 -12.501  1.00  0.00     0.000 C 
BRANCH  11  12
HETATM   12  C   UNL     1     -27.982  17.521 -12.664  1.00  0.00     0.000 C 
BRANCH  12  13
HETATM   13  C   UNL     1     -28.479  17.419 -14.110  1.00  0.00     0.000 C 
BRANCH  13  14
HETATM   14  C   UNL     1     -29.934  16.936 -14.159  1.00  0.00     0.000 C 
BRANCH  14  15
HETATM   15  C   UNL     1     -30.159  15.767 -13.193  1.00  0.00     0.000 C 
BRANCH  15  16
HETATM   16  C   UNL     1     -29.772  14.434 -13.844  1.00  0.00     0.000 C 
BRANCH  16  17
HETATM   17  C   UNL     1     -30.430  13.255 -13.116  1.00  0.00    -0.000 C 
BRANCH  17  18
HETATM   18  C   UNL     1     -29.624  12.857 -11.874  1.00  0.00    -0.005 C 
HETATM   19  C   UNL     1     -30.396  13.167 -10.594  1.00  0.00     0.005 C 
ENDBRANCH  17  18
ENDBRANCH  16  17
ENDBRANCH  15  16
ENDBRANCH  14  15
ENDBRANCH  13  14
ENDBRANCH  12  13
ENDBRANCH  11  12
ENDBRANCH  10  11
ENDBRANCH   9  10
ENDBRANCH   8   9
ENDBRANCH   7   8
ENDBRANCH   6   7
ENDBRANCH   5   6
ENDBRANCH   3   5
ENDBRANCH   1   3
TORSDOF 15
ENDMDL
