MODEL 1
REMARK VINA RESULT:      -6.2      0.000      0.000
REMARK  16 active torsions:
REMARK  status: ('A' for Active; 'I' for Inactive)
REMARK    1  A    between atoms: O_1  and  C_20 
REMARK    2  A    between atoms: C_3  and  C_4 
REMARK    3  A    between atoms: C_3  and  C_5 
REMARK    4  A    between atoms: C_4  and  C_8 
REMARK    5  A    between atoms: C_5  and  C_11 
REMARK    6  A    between atoms: C_6  and  C_7 
REMARK    7  A    between atoms: C_6  and  C_9 
REMARK    8  A    between atoms: C_7  and  C_10 
REMARK    9  A    between atoms: C_8  and  C_12 
REMARK   10  A    between atoms: C_9  and  C_13 
REMARK   11  A    between atoms: C_10  and  C_14 
REMARK   12  A    between atoms: C_11  and  C_15 
REMARK   13  A    between atoms: C_12  and  C_16 
REMARK   14  A    between atoms: C_13  and  C_17 
REMARK   15  A    between atoms: C_14  and  C_18 
REMARK   16  A    between atoms: C_18  and  C_20 
ROOT
HETATM    1  O   UNL     1      -1.550  -8.153 -24.348  1.00  0.00    -0.776 OA
HETATM    2  H   UNL     1      -0.699  -8.305 -23.913  1.00  0.00     0.167 HD
ENDROOT
BRANCH   1   3
HETATM    3  C   UNL     1      -2.702  -8.100 -23.647  1.00  0.00     0.139 C 
HETATM    4  O   UNL     1      -3.748  -7.823 -24.218  1.00  0.00    -0.650 OA
BRANCH   3   5
HETATM    5  C   UNL     1      -2.671  -8.384 -22.168  1.00  0.00     0.110 C 
BRANCH   5   6
HETATM    6  C   UNL     1      -2.108  -7.219 -21.342  1.00  0.00     0.010 C 
BRANCH   6   7
HETATM    7  C   UNL     1      -2.094  -7.561 -19.847  1.00  0.00     0.001 C 
BRANCH   7   8
HETATM    8  C   UNL     1      -3.515  -7.566 -19.274  1.00  0.00     0.000 C 
BRANCH   8   9
HETATM    9  C   UNL     1      -3.575  -8.344 -17.954  1.00  0.00     0.000 C 
BRANCH   9  10
HETATM   10  C   UNL     1      -2.328  -8.074 -17.107  1.00  0.00     0.004 C 
BRANCH  10  11
HETATM   11  C   UNL     1      -2.690  -7.408 -15.777  1.00  0.00     0.027 C 
BRANCH  11  12
HETATM   12  C   UNL     1      -1.767  -7.915 -14.694  1.00  0.00    -0.031 C 
HETATM   13  C   UNL     1      -2.117  -8.296 -13.450  1.00  0.00    -0.031 C 
BRANCH  13  14
HETATM   14  C   UNL     1      -3.509  -8.295 -12.853  1.00  0.00     0.027 C 
BRANCH  14  15
HETATM   15  C   UNL     1      -3.499  -7.734 -11.420  1.00  0.00     0.004 C 
BRANCH  15  16
HETATM   16  C   UNL     1      -2.108  -7.299 -10.916  1.00  0.00     0.000 C 
BRANCH  16  17
HETATM   17  C   UNL     1      -2.041  -7.132  -9.389  1.00  0.00     0.000 C 
BRANCH  17  18
HETATM   18  C   UNL     1      -2.722  -8.306  -8.674  1.00  0.00     0.000 C 
BRANCH  18  19
HETATM   19  C   UNL     1      -2.166  -8.483  -7.256  1.00  0.00    -0.000 C 
BRANCH  19  20
HETATM   20  C   UNL     1      -2.165  -7.153  -6.493  1.00  0.00    -0.005 C 
HETATM   21  C   UNL     1      -2.605  -7.349  -5.046  1.00  0.00     0.005 C 
ENDBRANCH  19  20
ENDBRANCH  18  19
ENDBRANCH  17  18
ENDBRANCH  16  17
ENDBRANCH  15  16
ENDBRANCH  14  15
ENDBRANCH  13  14
ENDBRANCH  11  12
ENDBRANCH  10  11
ENDBRANCH   9  10
ENDBRANCH   8   9
ENDBRANCH   7   8
ENDBRANCH   6   7
ENDBRANCH   5   6
ENDBRANCH   3   5
ENDBRANCH   1   3
TORSDOF 16
ENDMDL
MODEL 2
REMARK VINA RESULT:      -4.8     33.944     35.921
REMARK  16 active torsions:
REMARK  status: ('A' for Active; 'I' for Inactive)
REMARK    1  A    between atoms: O_1  and  C_20 
REMARK    2  A    between atoms: C_3  and  C_4 
REMARK    3  A    between atoms: C_3  and  C_5 
REMARK    4  A    between atoms: C_4  and  C_8 
REMARK    5  A    between atoms: C_5  and  C_11 
REMARK    6  A    between atoms: C_6  and  C_7 
REMARK    7  A    between atoms: C_6  and  C_9 
REMARK    8  A    between atoms: C_7  and  C_10 
REMARK    9  A    between atoms: C_8  and  C_12 
REMARK   10  A    between atoms: C_9  and  C_13 
REMARK   11  A    between atoms: C_10  and  C_14 
REMARK   12  A    between atoms: C_11  and  C_15 
REMARK   13  A    between atoms: C_12  and  C_16 
REMARK   14  A    between atoms: C_13  and  C_17 
REMARK   15  A    between atoms: C_14  and  C_18 
REMARK   16  A    between atoms: C_18  and  C_20 
ROOT
HETATM    1  O   UNL     1     -37.211  -3.694 -10.631  1.00  0.00    -0.776 OA
HETATM    2  H   UNL     1     -36.749  -3.929  -9.813  1.00  0.00     0.167 HD
ENDROOT
BRANCH   1   3
HETATM    3  C   UNL     1     -37.380  -4.588 -11.627  1.00  0.00     0.139 C 
HETATM    4  O   UNL     1     -37.593  -4.195 -12.766  1.00  0.00    -0.650 OA
BRANCH   3   5
HETATM    5  C   UNL     1     -37.301  -6.059 -11.311  1.00  0.00     0.110 C 
BRANCH   5   6
HETATM    6  C   UNL     1     -36.011  -6.717 -11.821  1.00  0.00     0.010 C 
BRANCH   6   7
HETATM    7  C   UNL     1     -36.213  -7.312 -13.220  1.00  0.00     0.001 C 
BRANCH   7   8
HETATM    8  C   UNL     1     -35.223  -8.452 -13.477  1.00  0.00     0.000 C 
BRANCH   8   9
HETATM    9  C   UNL     1     -34.371  -8.173 -14.721  1.00  0.00     0.000 C 
BRANCH   9  10
HETATM   10  C   UNL     1     -34.868  -6.920 -15.450  1.00  0.00     0.004 C 
BRANCH  10  11
HETATM   11  C   UNL     1     -35.640  -7.283 -16.721  1.00  0.00     0.027 C 
BRANCH  11  12
HETATM   12  C   UNL     1     -36.765  -6.296 -16.924  1.00  0.00    -0.031 C 
HETATM   13  C   UNL     1     -38.082  -6.530 -16.761  1.00  0.00    -0.031 C 
BRANCH  13  14
HETATM   14  C   UNL     1     -38.734  -7.833 -16.347  1.00  0.00     0.027 C 
BRANCH  14  15
HETATM   15  C   UNL     1     -39.613  -8.399 -17.477  1.00  0.00     0.004 C 
BRANCH  15  16
HETATM   16  C   UNL     1     -38.916  -8.469 -18.851  1.00  0.00     0.000 C 
BRANCH  16  17
HETATM   17  C   UNL     1     -39.644  -7.666 -19.941  1.00  0.00     0.000 C 
BRANCH  17  18
HETATM   18  C   UNL     1     -38.651  -7.090 -20.960  1.00  0.00     0.000 C 
BRANCH  18  19
HETATM   19  C   UNL     1     -37.238  -7.017 -20.369  1.00  0.00    -0.000 C 
BRANCH  19  20
HETATM   20  C   UNL     1     -36.535  -5.718 -20.780  1.00  0.00    -0.005 C 
HETATM   21  C   UNL     1     -37.305  -4.496 -20.289  1.00  0.00     0.005 C 
ENDBRANCH  19  20
ENDBRANCH  18  19
ENDBRANCH  17  18
ENDBRANCH  16  17
ENDBRANCH  15  16
ENDBRANCH  14  15
ENDBRANCH  13  14
ENDBRANCH  11  12
ENDBRANCH  10  11
ENDBRANCH   9  10
ENDBRANCH   8   9
ENDBRANCH   7   8
ENDBRANCH   6   7
ENDBRANCH   5   6
ENDBRANCH   3   5
ENDBRANCH   1   3
TORSDOF 16
ENDMDL
MODEL 3
REMARK VINA RESULT:      -4.7     33.120     34.308
REMARK  16 active torsions:
REMARK  status: ('A' for Active; 'I' for Inactive)
REMARK    1  A    between atoms: O_1  and  C_20 
REMARK    2  A    between atoms: C_3  and  C_4 
REMARK    3  A    between atoms: C_3  and  C_5 
REMARK    4  A    between atoms: C_4  and  C_8 
REMARK    5  A    between atoms: C_5  and  C_11 
REMARK    6  A    between atoms: C_6  and  C_7 
REMARK    7  A    between atoms: C_6  and  C_9 
REMARK    8  A    between atoms: C_7  and  C_10 
REMARK    9  A    between atoms: C_8  and  C_12 
REMARK   10  A    between atoms: C_9  and  C_13 
REMARK   11  A    between atoms: C_10  and  C_14 
REMARK   12  A    between atoms: C_11  and  C_15 
REMARK   13  A    between atoms: C_12  and  C_16 
REMARK   14  A    between atoms: C_13  and  C_17 
REMARK   15  A    between atoms: C_14  and  C_18 
REMARK   16  A    between atoms: C_18  and  C_20 
ROOT
HETATM    1  O   UNL     1     -33.554  -9.718 -13.646  1.00  0.00    -0.776 OA
HETATM    2  H   UNL     1     -32.686 -10.005 -13.966  1.00  0.00     0.167 HD
ENDROOT
BRANCH   1   3
HETATM    3  C   UNL     1     -34.292  -8.815 -14.324  1.00  0.00     0.139 C 
HETATM    4  O   UNL     1     -34.072  -8.620 -15.512  1.00  0.00    -0.650 OA
BRANCH   3   5
HETATM    5  C   UNL     1     -35.377  -8.064 -13.597  1.00  0.00     0.110 C 
BRANCH   5   6
HETATM    6  C   UNL     1     -35.979  -6.922 -14.427  1.00  0.00     0.010 C 
BRANCH   6   7
HETATM    7  C   UNL     1     -37.503  -6.864 -14.260  1.00  0.00     0.001 C 
BRANCH   7   8
HETATM    8  C   UNL     1     -37.881  -6.358 -12.864  1.00  0.00     0.000 C 
BRANCH   8   9
HETATM    9  C   UNL     1     -37.660  -4.845 -12.747  1.00  0.00     0.000 C 
BRANCH   9  10
HETATM   10  C   UNL     1     -37.253  -4.464 -11.320  1.00  0.00     0.004 C 
BRANCH  10  11
HETATM   11  C   UNL     1     -36.761  -5.683 -10.535  1.00  0.00     0.027 C 
BRANCH  11  12
HETATM   12  C   UNL     1     -37.468  -5.739  -9.202  1.00  0.00    -0.031 C 
HETATM   13  C   UNL     1     -38.411  -6.626  -8.826  1.00  0.00    -0.031 C 
BRANCH  13  14
HETATM   14  C   UNL     1     -38.981  -7.758  -9.654  1.00  0.00     0.027 C 
BRANCH  14  15
HETATM   15  C   UNL     1     -38.152  -9.044  -9.484  1.00  0.00     0.004 C 
BRANCH  15  16
HETATM   16  C   UNL     1     -37.153  -9.312 -10.628  1.00  0.00     0.000 C 
BRANCH  16  17
HETATM   17  C   UNL     1     -35.695  -9.407 -10.149  1.00  0.00     0.000 C 
BRANCH  17  18
HETATM   18  C   UNL     1     -35.580  -9.071  -8.656  1.00  0.00     0.000 C 
BRANCH  18  19
HETATM   19  C   UNL     1     -34.627  -7.892  -8.429  1.00  0.00    -0.000 C 
BRANCH  19  20
HETATM   20  C   UNL     1     -34.737  -7.360  -6.996  1.00  0.00    -0.005 C 
HETATM   21  C   UNL     1     -36.015  -7.852  -6.323  1.00  0.00     0.005 C 
ENDBRANCH  19  20
ENDBRANCH  18  19
ENDBRANCH  17  18
ENDBRANCH  16  17
ENDBRANCH  15  16
ENDBRANCH  14  15
ENDBRANCH  13  14
ENDBRANCH  11  12
ENDBRANCH  10  11
ENDBRANCH   9  10
ENDBRANCH   8   9
ENDBRANCH   7   8
ENDBRANCH   6   7
ENDBRANCH   5   6
ENDBRANCH   3   5
ENDBRANCH   1   3
TORSDOF 16
ENDMDL
MODEL 4
REMARK VINA RESULT:      -4.7     33.745     35.634
REMARK  16 active torsions:
REMARK  status: ('A' for Active; 'I' for Inactive)
REMARK    1  A    between atoms: O_1  and  C_20 
REMARK    2  A    between atoms: C_3  and  C_4 
REMARK    3  A    between atoms: C_3  and  C_5 
REMARK    4  A    between atoms: C_4  and  C_8 
REMARK    5  A    between atoms: C_5  and  C_11 
REMARK    6  A    between atoms: C_6  and  C_7 
REMARK    7  A    between atoms: C_6  and  C_9 
REMARK    8  A    between atoms: C_7  and  C_10 
REMARK    9  A    between atoms: C_8  and  C_12 
REMARK   10  A    between atoms: C_9  and  C_13 
REMARK   11  A    between atoms: C_10  and  C_14 
REMARK   12  A    between atoms: C_11  and  C_15 
REMARK   13  A    between atoms: C_12  and  C_16 
REMARK   14  A    between atoms: C_13  and  C_17 
REMARK   15  A    between atoms: C_14  and  C_18 
REMARK   16  A    between atoms: C_18  and  C_20 
ROOT
HETATM    1  O   UNL     1     -38.635  -6.168  -9.677  1.00  0.00    -0.776 OA
HETATM    2  H   UNL     1     -38.321  -7.082  -9.634  1.00  0.00     0.167 HD
ENDROOT
BRANCH   1   3
HETATM    3  C   UNL     1     -37.777  -5.126  -9.671  1.00  0.00     0.139 C 
HETATM    4  O   UNL     1     -37.729  -4.385  -8.699  1.00  0.00    -0.650 OA
BRANCH   3   5
HETATM    5  C   UNL     1     -36.892  -4.901 -10.869  1.00  0.00     0.110 C 
BRANCH   5   6
HETATM    6  C   UNL     1     -37.669  -4.458 -12.117  1.00  0.00     0.010 C 
BRANCH   6   7
HETATM    7  C   UNL     1     -37.698  -5.573 -13.170  1.00  0.00     0.001 C 
BRANCH   7   8
HETATM    8  C   UNL     1     -37.831  -4.989 -14.580  1.00  0.00     0.000 C 
BRANCH   8   9
HETATM    9  C   UNL     1     -37.492  -6.038 -15.646  1.00  0.00     0.000 C 
BRANCH   9  10
HETATM   10  C   UNL     1     -36.979  -5.367 -16.925  1.00  0.00     0.004 C 
BRANCH  10  11
HETATM   11  C   UNL     1     -37.822  -5.764 -18.140  1.00  0.00     0.027 C 
BRANCH  11  12
HETATM   12  C   UNL     1     -37.699  -4.700 -19.204  1.00  0.00    -0.031 C 
HETATM   13  C   UNL     1     -37.317  -4.881 -20.485  1.00  0.00    -0.031 C 
BRANCH  13  14
HETATM   14  C   UNL     1     -36.917  -6.185 -21.142  1.00  0.00     0.027 C 
BRANCH  14  15
HETATM   15  C   UNL     1     -35.395  -6.401 -21.070  1.00  0.00     0.004 C 
BRANCH  15  16
HETATM   16  C   UNL     1     -34.973  -7.830 -20.672  1.00  0.00     0.000 C 
BRANCH  16  17
HETATM   17  C   UNL     1     -35.516  -8.263 -19.300  1.00  0.00     0.000 C 
BRANCH  17  18
HETATM   18  C   UNL     1     -34.469  -8.046 -18.199  1.00  0.00     0.000 C 
BRANCH  18  19
HETATM   19  C   UNL     1     -35.028  -8.436 -16.825  1.00  0.00    -0.000 C 
BRANCH  19  20
HETATM   20  C   UNL     1     -36.341  -9.216 -16.965  1.00  0.00    -0.005 C 
HETATM   21  C   UNL     1     -36.788  -9.786 -15.622  1.00  0.00     0.005 C 
ENDBRANCH  19  20
ENDBRANCH  18  19
ENDBRANCH  17  18
ENDBRANCH  16  17
ENDBRANCH  15  16
ENDBRANCH  14  15
ENDBRANCH  13  14
ENDBRANCH  11  12
ENDBRANCH  10  11
ENDBRANCH   9  10
ENDBRANCH   8   9
ENDBRANCH   7   8
ENDBRANCH   6   7
ENDBRANCH   5   6
ENDBRANCH   3   5
ENDBRANCH   1   3
TORSDOF 16
ENDMDL
MODEL 5
REMARK VINA RESULT:      -4.7     33.544     34.519
REMARK  16 active torsions:
REMARK  status: ('A' for Active; 'I' for Inactive)
REMARK    1  A    between atoms: O_1  and  C_20 
REMARK    2  A    between atoms: C_3  and  C_4 
REMARK    3  A    between atoms: C_3  and  C_5 
REMARK    4  A    between atoms: C_4  and  C_8 
REMARK    5  A    between atoms: C_5  and  C_11 
REMARK    6  A    between atoms: C_6  and  C_7 
REMARK    7  A    between atoms: C_6  and  C_9 
REMARK    8  A    between atoms: C_7  and  C_10 
REMARK    9  A    between atoms: C_8  and  C_12 
REMARK   10  A    between atoms: C_9  and  C_13 
REMARK   11  A    between atoms: C_10  and  C_14 
REMARK   12  A    between atoms: C_11  and  C_15 
REMARK   13  A    between atoms: C_12  and  C_16 
REMARK   14  A    between atoms: C_13  and  C_17 
REMARK   15  A    between atoms: C_14  and  C_18 
REMARK   16  A    between atoms: C_18  and  C_20 
ROOT
HETATM    1  O   UNL     1     -35.089  -9.006 -13.539  1.00  0.00    -0.776 OA
HETATM    2  H   UNL     1     -34.574  -8.950 -12.722  1.00  0.00     0.167 HD
ENDROOT
BRANCH   1   3
HETATM    3  C   UNL     1     -34.713  -8.348 -14.656  1.00  0.00     0.139 C 
HETATM    4  O   UNL     1     -33.552  -7.980 -14.782  1.00  0.00    -0.650 OA
BRANCH   3   5
HETATM    5  C   UNL     1     -35.737  -8.082 -15.728  1.00  0.00     0.110 C 
BRANCH   5   6
HETATM    6  C   UNL     1     -35.660  -6.657 -16.294  1.00  0.00     0.010 C 
BRANCH   6   7
HETATM    7  C   UNL     1     -37.063  -6.094 -16.557  1.00  0.00     0.001 C 
BRANCH   7   8
HETATM    8  C   UNL     1     -37.246  -4.738 -15.867  1.00  0.00     0.000 C 
BRANCH   8   9
HETATM    9  C   UNL     1     -37.424  -4.909 -14.354  1.00  0.00     0.000 C 
BRANCH   9  10
HETATM   10  C   UNL     1     -38.374  -6.072 -14.046  1.00  0.00     0.004 C 
BRANCH  10  11
HETATM   11  C   UNL     1     -37.891  -6.885 -12.843  1.00  0.00     0.027 C 
BRANCH  11  12
HETATM   12  C   UNL     1     -36.731  -6.173 -12.189  1.00  0.00    -0.031 C 
HETATM   13  C   UNL     1     -36.788  -5.349 -11.123  1.00  0.00    -0.031 C 
BRANCH  13  14
HETATM   14  C   UNL     1     -38.023  -4.944 -10.347  1.00  0.00     0.027 C 
BRANCH  14  15
HETATM   15  C   UNL     1     -37.821  -5.144  -8.835  1.00  0.00     0.004 C 
BRANCH  15  16
HETATM   16  C   UNL     1     -37.720  -6.619  -8.396  1.00  0.00     0.000 C 
BRANCH  16  17
HETATM   17  C   UNL     1     -36.376  -6.964  -7.733  1.00  0.00     0.000 C 
BRANCH  17  18
HETATM   18  C   UNL     1     -36.134  -6.096  -6.490  1.00  0.00     0.000 C 
BRANCH  18  19
HETATM   19  C   UNL     1     -36.396  -6.892  -5.206  1.00  0.00    -0.000 C 
BRANCH  19  20
HETATM   20  C   UNL     1     -37.382  -6.155  -4.291  1.00  0.00    -0.005 C 
HETATM   21  C   UNL     1     -37.721  -4.775  -4.846  1.00  0.00     0.005 C 
ENDBRANCH  19  20
ENDBRANCH  18  19
ENDBRANCH  17  18
ENDBRANCH  16  17
ENDBRANCH  15  16
ENDBRANCH  14  15
ENDBRANCH  13  14
ENDBRANCH  11  12
ENDBRANCH  10  11
ENDBRANCH   9  10
ENDBRANCH   8   9
ENDBRANCH   7   8
ENDBRANCH   6   7
ENDBRANCH   5   6
ENDBRANCH   3   5
ENDBRANCH   1   3
TORSDOF 16
ENDMDL
MODEL 6
REMARK VINA RESULT:      -4.7     33.048     34.140
REMARK  16 active torsions:
REMARK  status: ('A' for Active; 'I' for Inactive)
REMARK    1  A    between atoms: O_1  and  C_20 
REMARK    2  A    between atoms: C_3  and  C_4 
REMARK    3  A    between atoms: C_3  and  C_5 
REMARK    4  A    between atoms: C_4  and  C_8 
REMARK    5  A    between atoms: C_5  and  C_11 
REMARK    6  A    between atoms: C_6  and  C_7 
REMARK    7  A    between atoms: C_6  and  C_9 
REMARK    8  A    between atoms: C_7  and  C_10 
REMARK    9  A    between atoms: C_8  and  C_12 
REMARK   10  A    between atoms: C_9  and  C_13 
REMARK   11  A    between atoms: C_10  and  C_14 
REMARK   12  A    between atoms: C_11  and  C_15 
REMARK   13  A    between atoms: C_12  and  C_16 
REMARK   14  A    between atoms: C_13  and  C_17 
REMARK   15  A    between atoms: C_14  and  C_18 
REMARK   16  A    between atoms: C_18  and  C_20 
ROOT
HETATM    1  O   UNL     1     -35.130 -11.376 -12.588  1.00  0.00    -0.776 OA
HETATM    2  H   UNL     1     -35.961 -11.699 -12.965  1.00  0.00     0.167 HD
ENDROOT
BRANCH   1   3
HETATM    3  C   UNL     1     -34.599 -10.193 -12.962  1.00  0.00     0.139 C 
HETATM    4  O   UNL     1     -34.467  -9.299 -12.137  1.00  0.00    -0.650 OA
BRANCH   3   5
HETATM    5  C   UNL     1     -34.177 -10.002 -14.395  1.00  0.00     0.110 C 
BRANCH   5   6
HETATM    6  C   UNL     1     -35.044  -8.983 -15.148  1.00  0.00     0.010 C 
BRANCH   6   7
HETATM    7  C   UNL     1     -34.292  -7.661 -15.347  1.00  0.00     0.001 C 
BRANCH   7   8
HETATM    8  C   UNL     1     -34.869  -6.877 -16.530  1.00  0.00     0.000 C 
BRANCH   8   9
HETATM    9  C   UNL     1     -36.237  -7.431 -16.944  1.00  0.00     0.000 C 
BRANCH   9  10
HETATM   10  C   UNL     1     -37.362  -6.493 -16.493  1.00  0.00     0.004 C 
BRANCH  10  11
HETATM   11  C   UNL     1     -36.805  -5.196 -15.900  1.00  0.00     0.027 C 
BRANCH  11  12
HETATM   12  C   UNL     1     -37.694  -4.739 -14.769  1.00  0.00    -0.031 C 
HETATM   13  C   UNL     1     -37.723  -5.235 -13.516  1.00  0.00    -0.031 C 
BRANCH  13  14
HETATM   14  C   UNL     1     -36.881  -6.364 -12.961  1.00  0.00     0.027 C 
BRANCH  14  15
HETATM   15  C   UNL     1     -36.542  -6.128 -11.478  1.00  0.00     0.004 C 
BRANCH  15  16
HETATM   16  C   UNL     1     -36.930  -4.732 -10.950  1.00  0.00     0.000 C 
BRANCH  16  17
HETATM   17  C   UNL     1     -37.632  -4.775  -9.583  1.00  0.00     0.000 C 
BRANCH  17  18
HETATM   18  C   UNL     1     -38.248  -6.155  -9.321  1.00  0.00     0.000 C 
BRANCH  18  19
HETATM   19  C   UNL     1     -37.793  -6.712  -7.966  1.00  0.00    -0.000 C 
BRANCH  19  20
HETATM   20  C   UNL     1     -36.833  -7.893  -8.150  1.00  0.00    -0.005 C 
HETATM   21  C   UNL     1     -35.389  -7.475  -7.891  1.00  0.00     0.005 C 
ENDBRANCH  19  20
ENDBRANCH  18  19
ENDBRANCH  17  18
ENDBRANCH  16  17
ENDBRANCH  15  16
ENDBRANCH  14  15
ENDBRANCH  13  14
ENDBRANCH  11  12
ENDBRANCH  10  11
ENDBRANCH   9  10
ENDBRANCH   8   9
ENDBRANCH   7   8
ENDBRANCH   6   7
ENDBRANCH   5   6
ENDBRANCH   3   5
ENDBRANCH   1   3
TORSDOF 16
ENDMDL
MODEL 7
REMARK VINA RESULT:      -4.6     33.530     35.662
REMARK  16 active torsions:
REMARK  status: ('A' for Active; 'I' for Inactive)
REMARK    1  A    between atoms: O_1  and  C_20 
REMARK    2  A    between atoms: C_3  and  C_4 
REMARK    3  A    between atoms: C_3  and  C_5 
REMARK    4  A    between atoms: C_4  and  C_8 
REMARK    5  A    between atoms: C_5  and  C_11 
REMARK    6  A    between atoms: C_6  and  C_7 
REMARK    7  A    between atoms: C_6  and  C_9 
REMARK    8  A    between atoms: C_7  and  C_10 
REMARK    9  A    between atoms: C_8  and  C_12 
REMARK   10  A    between atoms: C_9  and  C_13 
REMARK   11  A    between atoms: C_10  and  C_14 
REMARK   12  A    between atoms: C_11  and  C_15 
REMARK   13  A    between atoms: C_12  and  C_16 
REMARK   14  A    between atoms: C_13  and  C_17 
REMARK   15  A    between atoms: C_14  and  C_18 
REMARK   16  A    between atoms: C_18  and  C_20 
ROOT
HETATM    1  O   UNL     1     -35.775  -9.032 -10.657  1.00  0.00    -0.776 OA
HETATM    2  H   UNL     1     -35.440  -9.746 -11.219  1.00  0.00     0.167 HD
ENDROOT
BRANCH   1   3
HETATM    3  C   UNL     1     -34.943  -8.141 -10.079  1.00  0.00     0.139 C 
HETATM    4  O   UNL     1     -33.890  -7.848 -10.628  1.00  0.00    -0.650 OA
BRANCH   3   5
HETATM    5  C   UNL     1     -35.335  -7.522  -8.763  1.00  0.00     0.110 C 
BRANCH   5   6
HETATM    6  C   UNL     1     -36.712  -7.984  -8.265  1.00  0.00     0.010 C 
BRANCH   6   7
HETATM    7  C   UNL     1     -37.821  -7.056  -8.776  1.00  0.00     0.001 C 
BRANCH   7   8
HETATM    8  C   UNL     1     -37.657  -5.643  -8.204  1.00  0.00     0.000 C 
BRANCH   8   9
HETATM    9  C   UNL     1     -37.512  -4.608  -9.325  1.00  0.00     0.000 C 
BRANCH   9  10
HETATM   10  C   UNL     1     -38.343  -5.011 -10.547  1.00  0.00     0.004 C 
BRANCH  10  11
HETATM   11  C   UNL     1     -37.536  -4.872 -11.841  1.00  0.00     0.027 C 
BRANCH  11  12
HETATM   12  C   UNL     1     -37.179  -6.245 -12.359  1.00  0.00    -0.031 C 
HETATM   13  C   UNL     1     -37.251  -6.668 -13.637  1.00  0.00    -0.031 C 
BRANCH  13  14
HETATM   14  C   UNL     1     -37.711  -5.869 -14.839  1.00  0.00     0.027 C 
BRANCH  14  15
HETATM   15  C   UNL     1     -36.540  -5.574 -15.792  1.00  0.00     0.004 C 
BRANCH  15  16
HETATM   16  C   UNL     1     -35.647  -6.794 -16.101  1.00  0.00     0.000 C 
BRANCH  16  17
HETATM   17  C   UNL     1     -35.629  -7.170 -17.591  1.00  0.00     0.000 C 
BRANCH  17  18
HETATM   18  C   UNL     1     -36.935  -6.757 -18.282  1.00  0.00     0.000 C 
BRANCH  18  19
HETATM   19  C   UNL     1     -36.817  -6.888 -19.805  1.00  0.00    -0.000 C 
BRANCH  19  20
HETATM   20  C   UNL     1     -36.585  -5.522 -20.460  1.00  0.00    -0.005 C 
HETATM   21  C   UNL     1     -37.772  -4.591 -20.228  1.00  0.00     0.005 C 
ENDBRANCH  19  20
ENDBRANCH  18  19
ENDBRANCH  17  18
ENDBRANCH  16  17
ENDBRANCH  15  16
ENDBRANCH  14  15
ENDBRANCH  13  14
ENDBRANCH  11  12
ENDBRANCH  10  11
ENDBRANCH   9  10
ENDBRANCH   8   9
ENDBRANCH   7   8
ENDBRANCH   6   7
ENDBRANCH   5   6
ENDBRANCH   3   5
ENDBRANCH   1   3
TORSDOF 16
ENDMDL
MODEL 8
REMARK VINA RESULT:      -4.6     34.824     36.247
REMARK  16 active torsions:
REMARK  status: ('A' for Active; 'I' for Inactive)
REMARK    1  A    between atoms: O_1  and  C_20 
REMARK    2  A    between atoms: C_3  and  C_4 
REMARK    3  A    between atoms: C_3  and  C_5 
REMARK    4  A    between atoms: C_4  and  C_8 
REMARK    5  A    between atoms: C_5  and  C_11 
REMARK    6  A    between atoms: C_6  and  C_7 
REMARK    7  A    between atoms: C_6  and  C_9 
REMARK    8  A    between atoms: C_7  and  C_10 
REMARK    9  A    between atoms: C_8  and  C_12 
REMARK   10  A    between atoms: C_9  and  C_13 
REMARK   11  A    between atoms: C_10  and  C_14 
REMARK   12  A    between atoms: C_11  and  C_15 
REMARK   13  A    between atoms: C_12  and  C_16 
REMARK   14  A    between atoms: C_13  and  C_17 
REMARK   15  A    between atoms: C_14  and  C_18 
REMARK   16  A    between atoms: C_18  and  C_20 
ROOT
HETATM    1  O   UNL     1     -25.769  17.929 -11.526  1.00  0.00    -0.776 OA
HETATM    2  H   UNL     1     -25.348  18.709 -11.137  1.00  0.00     0.167 HD
ENDROOT
BRANCH   1   3
HETATM    3  C   UNL     1     -26.915  17.422 -11.026  1.00  0.00     0.139 C 
HETATM    4  O   UNL     1     -26.973  16.239 -10.720  1.00  0.00    -0.650 OA
BRANCH   3   5
HETATM    5  C   UNL     1     -28.103  18.332 -10.855  1.00  0.00     0.110 C 
BRANCH   5   6
HETATM    6  C   UNL     1     -29.032  18.347 -12.077  1.00  0.00     0.010 C 
BRANCH   6   7
HETATM    7  C   UNL     1     -28.792  19.596 -12.934  1.00  0.00     0.001 C 
BRANCH   7   8
HETATM    8  C   UNL     1     -30.097  20.077 -13.577  1.00  0.00     0.000 C 
BRANCH   8   9
HETATM    9  C   UNL     1     -30.326  19.400 -14.934  1.00  0.00     0.000 C 
BRANCH   9  10
HETATM   10  C   UNL     1     -29.050  19.435 -15.780  1.00  0.00     0.004 C 
BRANCH  10  11
HETATM   11  C   UNL     1     -28.919  18.179 -16.646  1.00  0.00     0.027 C 
BRANCH  11  12
HETATM   12  C   UNL     1     -29.196  16.957 -15.802  1.00  0.00    -0.031 C 
HETATM   13  C   UNL     1     -28.323  16.322 -14.994  1.00  0.00    -0.031 C 
BRANCH  13  14
HETATM   14  C   UNL     1     -26.872  16.681 -14.755  1.00  0.00     0.027 C 
BRANCH  14  15
HETATM   15  C   UNL     1     -26.089  15.484 -14.187  1.00  0.00     0.004 C 
BRANCH  15  16
HETATM   16  C   UNL     1     -25.445  14.579 -15.257  1.00  0.00     0.000 C 
BRANCH  16  17
HETATM   17  C   UNL     1     -26.145  13.218 -15.402  1.00  0.00     0.000 C 
BRANCH  17  18
HETATM   18  C   UNL     1     -27.038  13.186 -16.649  1.00  0.00     0.000 C 
BRANCH  18  19
HETATM   19  C   UNL     1     -26.399  13.966 -17.804  1.00  0.00    -0.000 C 
BRANCH  19  20
HETATM   20  C   UNL     1     -27.381  14.988 -18.390  1.00  0.00    -0.005 C 
HETATM   21  C   UNL     1     -26.663  16.273 -18.792  1.00  0.00     0.005 C 
ENDBRANCH  19  20
ENDBRANCH  18  19
ENDBRANCH  17  18
ENDBRANCH  16  17
ENDBRANCH  15  16
ENDBRANCH  14  15
ENDBRANCH  13  14
ENDBRANCH  11  12
ENDBRANCH  10  11
ENDBRANCH   9  10
ENDBRANCH   8   9
ENDBRANCH   7   8
ENDBRANCH   6   7
ENDBRANCH   5   6
ENDBRANCH   3   5
ENDBRANCH   1   3
TORSDOF 16
ENDMDL
MODEL 9
REMARK VINA RESULT:      -4.6     33.695     35.144
REMARK  16 active torsions:
REMARK  status: ('A' for Active; 'I' for Inactive)
REMARK    1  A    between atoms: O_1  and  C_20 
REMARK    2  A    between atoms: C_3  and  C_4 
REMARK    3  A    between atoms: C_3  and  C_5 
REMARK    4  A    between atoms: C_4  and  C_8 
REMARK    5  A    between atoms: C_5  and  C_11 
REMARK    6  A    between atoms: C_6  and  C_7 
REMARK    7  A    between atoms: C_6  and  C_9 
REMARK    8  A    between atoms: C_7  and  C_10 
REMARK    9  A    between atoms: C_8  and  C_12 
REMARK   10  A    between atoms: C_9  and  C_13 
REMARK   11  A    between atoms: C_10  and  C_14 
REMARK   12  A    between atoms: C_11  and  C_15 
REMARK   13  A    between atoms: C_12  and  C_16 
REMARK   14  A    between atoms: C_13  and  C_17 
REMARK   15  A    between atoms: C_14  and  C_18 
REMARK   16  A    between atoms: C_18  and  C_20 
ROOT
HETATM    1  O   UNL     1     -36.690  -6.532 -15.538  1.00  0.00    -0.776 OA
HETATM    2  H   UNL     1     -36.936  -7.127 -14.815  1.00  0.00     0.167 HD
ENDROOT
BRANCH   1   3
HETATM    3  C   UNL     1     -37.262  -5.318 -15.677  1.00  0.00     0.139 C 
HETATM    4  O   UNL     1     -37.401  -4.838 -16.794  1.00  0.00    -0.650 OA
BRANCH   3   5
HETATM    5  C   UNL     1     -37.719  -4.579 -14.447  1.00  0.00     0.110 C 
BRANCH   5   6
HETATM    6  C   UNL     1     -37.568  -5.400 -13.159  1.00  0.00     0.010 C 
BRANCH   6   7
HETATM    7  C   UNL     1     -37.673  -4.503 -11.920  1.00  0.00     0.001 C 
BRANCH   7   8
HETATM    8  C   UNL     1     -38.277  -5.271 -10.739  1.00  0.00     0.000 C 
BRANCH   8   9
HETATM    9  C   UNL     1     -37.749  -4.733  -9.404  1.00  0.00     0.000 C 
BRANCH   9  10
HETATM   10  C   UNL     1     -37.090  -5.852  -8.590  1.00  0.00     0.004 C 
BRANCH  10  11
HETATM   11  C   UNL     1     -37.228  -7.207  -9.289  1.00  0.00     0.027 C 
BRANCH  11  12
HETATM   12  C   UNL     1     -35.905  -7.932  -9.244  1.00  0.00    -0.031 C 
HETATM   13  C   UNL     1     -34.899  -7.832 -10.136  1.00  0.00    -0.031 C 
BRANCH  13  14
HETATM   14  C   UNL     1     -34.871  -6.979 -11.387  1.00  0.00     0.027 C 
BRANCH  14  15
HETATM   15  C   UNL     1     -34.747  -7.849 -12.651  1.00  0.00     0.004 C 
BRANCH  15  16
HETATM   16  C   UNL     1     -34.926  -9.360 -12.403  1.00  0.00     0.000 C 
BRANCH  16  17
HETATM   17  C   UNL     1     -36.233  -9.920 -12.988  1.00  0.00     0.000 C 
BRANCH  17  18
HETATM   18  C   UNL     1     -37.190 -10.367 -11.875  1.00  0.00     0.000 C 
BRANCH  18  19
HETATM   19  C   UNL     1     -38.482  -9.541 -11.898  1.00  0.00    -0.000 C 
BRANCH  19  20
HETATM   20  C   UNL     1     -38.496  -8.570 -13.084  1.00  0.00    -0.005 C 
HETATM   21  C   UNL     1     -39.910  -8.381 -13.624  1.00  0.00     0.005 C 
ENDBRANCH  19  20
ENDBRANCH  18  19
ENDBRANCH  17  18
ENDBRANCH  16  17
ENDBRANCH  15  16
ENDBRANCH  14  15
ENDBRANCH  13  14
ENDBRANCH  11  12
ENDBRANCH  10  11
ENDBRANCH   9  10
ENDBRANCH   8   9
ENDBRANCH   7   8
ENDBRANCH   6   7
ENDBRANCH   5   6
ENDBRANCH   3   5
ENDBRANCH   1   3
TORSDOF 16
ENDMDL
MODEL 10
REMARK VINA RESULT:      -4.6     33.210     35.329
REMARK  16 active torsions:
REMARK  status: ('A' for Active; 'I' for Inactive)
REMARK    1  A    between atoms: O_1  and  C_20 
REMARK    2  A    between atoms: C_3  and  C_4 
REMARK    3  A    between atoms: C_3  and  C_5 
REMARK    4  A    between atoms: C_4  and  C_8 
REMARK    5  A    between atoms: C_5  and  C_11 
REMARK    6  A    between atoms: C_6  and  C_7 
REMARK    7  A    between atoms: C_6  and  C_9 
REMARK    8  A    between atoms: C_7  and  C_10 
REMARK    9  A    between atoms: C_8  and  C_12 
REMARK   10  A    between atoms: C_9  and  C_13 
REMARK   11  A    between atoms: C_10  and  C_14 
REMARK   12  A    between atoms: C_11  and  C_15 
REMARK   13  A    between atoms: C_12  and  C_16 
REMARK   14  A    between atoms: C_13  and  C_17 
REMARK   15  A    between atoms: C_14  and  C_18 
REMARK   16  A    between atoms: C_18  and  C_20 
ROOT
HETATM    1  O   UNL     1     -37.591  -4.436 -12.647  1.00  0.00    -0.776 OA
HETATM    2  H   UNL     1     -37.190  -3.667 -13.077  1.00  0.00     0.167 HD
ENDROOT
BRANCH   1   3
HETATM    3  C   UNL     1     -37.525  -4.612 -11.311  1.00  0.00     0.139 C 
HETATM    4  O   UNL     1     -36.945  -3.786 -10.618  1.00  0.00    -0.650 OA
BRANCH   3   5
HETATM    5  C   UNL     1     -38.171  -5.827 -10.700  1.00  0.00     0.110 C 
BRANCH   5   6
HETATM    6  C   UNL     1     -37.215  -6.638  -9.814  1.00  0.00     0.010 C 
BRANCH   6   7
HETATM    7  C   UNL     1     -36.506  -7.729 -10.626  1.00  0.00     0.001 C 
BRANCH   7   8
HETATM    8  C   UNL     1     -35.030  -7.379 -10.842  1.00  0.00     0.000 C 
BRANCH   8   9
HETATM    9  C   UNL     1     -34.653  -7.470 -12.325  1.00  0.00     0.000 C 
BRANCH   9  10
HETATM   10  C   UNL     1     -35.908  -7.555 -13.200  1.00  0.00     0.004 C 
BRANCH  10  11
HETATM   11  C   UNL     1     -35.628  -8.301 -14.507  1.00  0.00     0.027 C 
BRANCH  11  12
HETATM   12  C   UNL     1     -35.027  -7.347 -15.511  1.00  0.00    -0.031 C 
HETATM   13  C   UNL     1     -35.686  -6.423 -16.240  1.00  0.00    -0.031 C 
BRANCH  13  14
HETATM   14  C   UNL     1     -37.173  -6.140 -16.225  1.00  0.00     0.027 C 
BRANCH  14  15
HETATM   15  C   UNL     1     -37.629  -5.484 -17.540  1.00  0.00     0.004 C 
BRANCH  15  16
HETATM   16  C   UNL     1     -38.242  -6.464 -18.561  1.00  0.00     0.000 C 
BRANCH  16  17
HETATM   17  C   UNL     1     -37.754  -6.225 -19.999  1.00  0.00     0.000 C 
BRANCH  17  18
HETATM   18  C   UNL     1     -36.233  -6.396 -20.102  1.00  0.00     0.000 C 
BRANCH  18  19
HETATM   19  C   UNL     1     -35.816  -7.831 -19.757  1.00  0.00    -0.000 C 
BRANCH  19  20
HETATM   20  C   UNL     1     -35.109  -8.501 -20.940  1.00  0.00    -0.005 C 
HETATM   21  C   UNL     1     -34.585  -7.463 -21.928  1.00  0.00     0.005 C 
ENDBRANCH  19  20
ENDBRANCH  18  19
ENDBRANCH  17  18
ENDBRANCH  16  17
ENDBRANCH  15  16
ENDBRANCH  14  15
ENDBRANCH  13  14
ENDBRANCH  11  12
ENDBRANCH  10  11
ENDBRANCH   9  10
ENDBRANCH   8   9
ENDBRANCH   7   8
ENDBRANCH   6   7
ENDBRANCH   5   6
ENDBRANCH   3   5
ENDBRANCH   1   3
TORSDOF 16
ENDMDL
MODEL 11
REMARK VINA RESULT:      -4.5     33.979     35.430
REMARK  16 active torsions:
REMARK  status: ('A' for Active; 'I' for Inactive)
REMARK    1  A    between atoms: O_1  and  C_20 
REMARK    2  A    between atoms: C_3  and  C_4 
REMARK    3  A    between atoms: C_3  and  C_5 
REMARK    4  A    between atoms: C_4  and  C_8 
REMARK    5  A    between atoms: C_5  and  C_11 
REMARK    6  A    between atoms: C_6  and  C_7 
REMARK    7  A    between atoms: C_6  and  C_9 
REMARK    8  A    between atoms: C_7  and  C_10 
REMARK    9  A    between atoms: C_8  and  C_12 
REMARK   10  A    between atoms: C_9  and  C_13 
REMARK   11  A    between atoms: C_10  and  C_14 
REMARK   12  A    between atoms: C_11  and  C_15 
REMARK   13  A    between atoms: C_12  and  C_16 
REMARK   14  A    between atoms: C_13  and  C_17 
REMARK   15  A    between atoms: C_14  and  C_18 
REMARK   16  A    between atoms: C_18  and  C_20 
ROOT
HETATM    1  O   UNL     1     -37.553  -4.057 -19.622  1.00  0.00    -0.776 OA
HETATM    2  H   UNL     1     -37.089  -3.451 -19.026  1.00  0.00     0.167 HD
ENDROOT
BRANCH   1   3
HETATM    3  C   UNL     1     -37.933  -5.288 -19.219  1.00  0.00     0.139 C 
HETATM    4  O   UNL     1     -38.461  -6.051 -20.017  1.00  0.00    -0.650 OA
BRANCH   3   5
HETATM    5  C   UNL     1     -37.696  -5.695 -17.789  1.00  0.00     0.110 C 
BRANCH   5   6
HETATM    6  C   UNL     1     -37.476  -4.501 -16.850  1.00  0.00     0.010 C 
BRANCH   6   7
HETATM    7  C   UNL     1     -38.202  -4.709 -15.516  1.00  0.00     0.001 C 
BRANCH   7   8
HETATM    8  C   UNL     1     -38.139  -6.178 -15.082  1.00  0.00     0.000 C 
BRANCH   8   9
HETATM    9  C   UNL     1     -36.794  -6.499 -14.420  1.00  0.00     0.000 C 
BRANCH   9  10
HETATM   10  C   UNL     1     -36.428  -7.974 -14.622  1.00  0.00     0.004 C 
BRANCH  10  11
HETATM   11  C   UNL     1     -34.979  -8.131 -15.089  1.00  0.00     0.027 C 
BRANCH  11  12
HETATM   12  C   UNL     1     -34.726  -7.212 -16.260  1.00  0.00    -0.031 C 
HETATM   13  C   UNL     1     -34.569  -7.574 -17.549  1.00  0.00    -0.031 C 
BRANCH  13  14
HETATM   14  C   UNL     1     -34.601  -8.979 -18.113  1.00  0.00     0.027 C 
BRANCH  14  15
HETATM   15  C   UNL     1     -36.040  -9.411 -18.450  1.00  0.00     0.004 C 
BRANCH  15  16
HETATM   16  C   UNL     1     -36.593 -10.536 -17.552  1.00  0.00     0.000 C 
BRANCH  16  17
HETATM   17  C   UNL     1     -38.107 -10.428 -17.309  1.00  0.00     0.000 C 
BRANCH  17  18
HETATM   18  C   UNL     1     -38.634  -9.042 -17.704  1.00  0.00     0.000 C 
BRANCH  18  19
HETATM   19  C   UNL     1     -39.970  -8.745 -17.014  1.00  0.00    -0.000 C 
BRANCH  19  20
HETATM   20  C   UNL     1     -39.991  -9.304 -15.586  1.00  0.00    -0.005 C 
HETATM   21  C   UNL     1     -40.956  -8.520 -14.702  1.00  0.00     0.005 C 
ENDBRANCH  19  20
ENDBRANCH  18  19
ENDBRANCH  17  18
ENDBRANCH  16  17
ENDBRANCH  15  16
ENDBRANCH  14  15
ENDBRANCH  13  14
ENDBRANCH  11  12
ENDBRANCH  10  11
ENDBRANCH   9  10
ENDBRANCH   8   9
ENDBRANCH   7   8
ENDBRANCH   6   7
ENDBRANCH   5   6
ENDBRANCH   3   5
ENDBRANCH   1   3
TORSDOF 16
ENDMDL
MODEL 12
REMARK VINA RESULT:      -4.5     34.426     36.274
REMARK  16 active torsions:
REMARK  status: ('A' for Active; 'I' for Inactive)
REMARK    1  A    between atoms: O_1  and  C_20 
REMARK    2  A    between atoms: C_3  and  C_4 
REMARK    3  A    between atoms: C_3  and  C_5 
REMARK    4  A    between atoms: C_4  and  C_8 
REMARK    5  A    between atoms: C_5  and  C_11 
REMARK    6  A    between atoms: C_6  and  C_7 
REMARK    7  A    between atoms: C_6  and  C_9 
REMARK    8  A    between atoms: C_7  and  C_10 
REMARK    9  A    between atoms: C_8  and  C_12 
REMARK   10  A    between atoms: C_9  and  C_13 
REMARK   11  A    between atoms: C_10  and  C_14 
REMARK   12  A    between atoms: C_11  and  C_15 
REMARK   13  A    between atoms: C_12  and  C_16 
REMARK   14  A    between atoms: C_13  and  C_17 
REMARK   15  A    between atoms: C_14  and  C_18 
REMARK   16  A    between atoms: C_18  and  C_20 
ROOT
HETATM    1  O   UNL     1     -37.169  -3.690 -10.455  1.00  0.00    -0.776 OA
HETATM    2  H   UNL     1     -36.659  -3.985  -9.688  1.00  0.00     0.167 HD
ENDROOT
BRANCH   1   3
HETATM    3  C   UNL     1     -37.474  -4.531 -11.465  1.00  0.00     0.139 C 
HETATM    4  O   UNL     1     -37.800  -4.079 -12.555  1.00  0.00    -0.650 OA
BRANCH   3   5
HETATM    5  C   UNL     1     -37.406  -6.016 -11.226  1.00  0.00     0.110 C 
BRANCH   5   6
HETATM    6  C   UNL     1     -36.288  -6.705 -12.021  1.00  0.00     0.010 C 
BRANCH   6   7
HETATM    7  C   UNL     1     -36.783  -7.131 -13.409  1.00  0.00     0.001 C 
BRANCH   7   8
HETATM    8  C   UNL     1     -35.679  -7.862 -14.182  1.00  0.00     0.000 C 
BRANCH   8   9
HETATM    9  C   UNL     1     -35.259  -7.069 -15.425  1.00  0.00     0.000 C 
BRANCH   9  10
HETATM   10  C   UNL     1     -36.214  -5.896 -15.669  1.00  0.00     0.004 C 
BRANCH  10  11
HETATM   11  C   UNL     1     -37.178  -6.190 -16.822  1.00  0.00     0.027 C 
BRANCH  11  12
HETATM   12  C   UNL     1     -36.521  -7.138 -17.796  1.00  0.00    -0.031 C 
HETATM   13  C   UNL     1     -36.399  -6.969 -19.128  1.00  0.00    -0.031 C 
BRANCH  13  14
HETATM   14  C   UNL     1     -36.899  -5.799 -19.949  1.00  0.00     0.027 C 
BRANCH  14  15
HETATM   15  C   UNL     1     -38.149  -6.183 -20.761  1.00  0.00     0.004 C 
BRANCH  15  16
HETATM   16  C   UNL     1     -39.258  -6.868 -19.937  1.00  0.00     0.000 C 
BRANCH  16  17
HETATM   17  C   UNL     1     -39.588  -8.288 -20.425  1.00  0.00     0.000 C 
BRANCH  17  18
HETATM   18  C   UNL     1     -40.172  -9.141 -19.292  1.00  0.00     0.000 C 
BRANCH  18  19
HETATM   19  C   UNL     1     -39.884  -8.510 -17.924  1.00  0.00    -0.000 C 
BRANCH  19  20
HETATM   20  C   UNL     1     -39.609  -9.586 -16.866  1.00  0.00    -0.005 C 
HETATM   21  C   UNL     1     -39.189  -8.959 -15.541  1.00  0.00     0.005 C 
ENDBRANCH  19  20
ENDBRANCH  18  19
ENDBRANCH  17  18
ENDBRANCH  16  17
ENDBRANCH  15  16
ENDBRANCH  14  15
ENDBRANCH  13  14
ENDBRANCH  11  12
ENDBRANCH  10  11
ENDBRANCH   9  10
ENDBRANCH   8   9
ENDBRANCH   7   8
ENDBRANCH   6   7
ENDBRANCH   5   6
ENDBRANCH   3   5
ENDBRANCH   1   3
TORSDOF 16
ENDMDL
MODEL 13
REMARK VINA RESULT:      -4.5     33.690     35.097
REMARK  16 active torsions:
REMARK  status: ('A' for Active; 'I' for Inactive)
REMARK    1  A    between atoms: O_1  and  C_20 
REMARK    2  A    between atoms: C_3  and  C_4 
REMARK    3  A    between atoms: C_3  and  C_5 
REMARK    4  A    between atoms: C_4  and  C_8 
REMARK    5  A    between atoms: C_5  and  C_11 
REMARK    6  A    between atoms: C_6  and  C_7 
REMARK    7  A    between atoms: C_6  and  C_9 
REMARK    8  A    between atoms: C_7  and  C_10 
REMARK    9  A    between atoms: C_8  and  C_12 
REMARK   10  A    between atoms: C_9  and  C_13 
REMARK   11  A    between atoms: C_10  and  C_14 
REMARK   12  A    between atoms: C_11  and  C_15 
REMARK   13  A    between atoms: C_12  and  C_16 
REMARK   14  A    between atoms: C_13  and  C_17 
REMARK   15  A    between atoms: C_14  and  C_18 
REMARK   16  A    between atoms: C_18  and  C_20 
ROOT
HETATM    1  O   UNL     1     -40.956  -8.314 -20.380  1.00  0.00    -0.776 OA
HETATM    2  H   UNL     1     -41.403  -7.534 -20.740  1.00  0.00     0.167 HD
ENDROOT
BRANCH   1   3
HETATM    3  C   UNL     1     -40.382  -8.297 -19.159  1.00  0.00     0.139 C 
HETATM    4  O   UNL     1     -40.946  -8.834 -18.215  1.00  0.00    -0.650 OA
BRANCH   3   5
HETATM    5  C   UNL     1     -39.051  -7.614 -18.986  1.00  0.00     0.110 C 
BRANCH   5   6
HETATM    6  C   UNL     1     -38.761  -6.574 -20.077  1.00  0.00     0.010 C 
BRANCH   6   7
HETATM    7  C   UNL     1     -37.718  -5.554 -19.602  1.00  0.00     0.001 C 
BRANCH   7   8
HETATM    8  C   UNL     1     -36.619  -5.366 -20.652  1.00  0.00     0.000 C 
BRANCH   8   9
HETATM    9  C   UNL     1     -36.596  -6.536 -21.643  1.00  0.00     0.000 C 
BRANCH   9  10
HETATM   10  C   UNL     1     -35.179  -7.105 -21.779  1.00  0.00     0.004 C 
BRANCH  10  11
HETATM   11  C   UNL     1     -34.750  -7.846 -20.510  1.00  0.00     0.027 C 
BRANCH  11  12
HETATM   12  C   UNL     1     -35.679  -9.012 -20.271  1.00  0.00    -0.031 C 
HETATM   13  C   UNL     1     -35.553  -9.963 -19.323  1.00  0.00    -0.031 C 
BRANCH  13  14
HETATM   14  C   UNL     1     -34.451 -10.083 -18.292  1.00  0.00     0.027 C 
BRANCH  14  15
HETATM   15  C   UNL     1     -34.939  -9.641 -16.902  1.00  0.00     0.004 C 
BRANCH  15  16
HETATM   16  C   UNL     1     -36.184  -8.730 -16.924  1.00  0.00     0.000 C 
BRANCH  16  17
HETATM   17  C   UNL     1     -35.839  -7.233 -16.985  1.00  0.00     0.000 C 
BRANCH  17  18
HETATM   18  C   UNL     1     -35.676  -6.646 -15.576  1.00  0.00     0.000 C 
BRANCH  18  19
HETATM   19  C   UNL     1     -37.040  -6.408 -14.918  1.00  0.00    -0.000 C 
BRANCH  19  20
HETATM   20  C   UNL     1     -37.988  -5.664 -15.866  1.00  0.00    -0.005 C 
HETATM   21  C   UNL     1     -37.556  -4.213 -16.050  1.00  0.00     0.005 C 
ENDBRANCH  19  20
ENDBRANCH  18  19
ENDBRANCH  17  18
ENDBRANCH  16  17
ENDBRANCH  15  16
ENDBRANCH  14  15
ENDBRANCH  13  14
ENDBRANCH  11  12
ENDBRANCH  10  11
ENDBRANCH   9  10
ENDBRANCH   8   9
ENDBRANCH   7   8
ENDBRANCH   6   7
ENDBRANCH   5   6
ENDBRANCH   3   5
ENDBRANCH   1   3
TORSDOF 16
ENDMDL
MODEL 14
REMARK VINA RESULT:      -4.5     34.292     36.031
REMARK  16 active torsions:
REMARK  status: ('A' for Active; 'I' for Inactive)
REMARK    1  A    between atoms: O_1  and  C_20 
REMARK    2  A    between atoms: C_3  and  C_4 
REMARK    3  A    between atoms: C_3  and  C_5 
REMARK    4  A    between atoms: C_4  and  C_8 
REMARK    5  A    between atoms: C_5  and  C_11 
REMARK    6  A    between atoms: C_6  and  C_7 
REMARK    7  A    between atoms: C_6  and  C_9 
REMARK    8  A    between atoms: C_7  and  C_10 
REMARK    9  A    between atoms: C_8  and  C_12 
REMARK   10  A    between atoms: C_9  and  C_13 
REMARK   11  A    between atoms: C_10  and  C_14 
REMARK   12  A    between atoms: C_11  and  C_15 
REMARK   13  A    between atoms: C_12  and  C_16 
REMARK   14  A    between atoms: C_13  and  C_17 
REMARK   15  A    between atoms: C_14  and  C_18 
REMARK   16  A    between atoms: C_18  and  C_20 
ROOT
HETATM    1  O   UNL     1     -40.591  -8.804 -11.476  1.00  0.00    -0.776 OA
HETATM    2  H   UNL     1     -40.073  -8.379 -12.174  1.00  0.00     0.167 HD
ENDROOT
BRANCH   1   3
HETATM    3  C   UNL     1     -40.651  -8.289 -10.230  1.00  0.00     0.139 C 
HETATM    4  O   UNL     1     -41.541  -8.645  -9.468  1.00  0.00    -0.650 OA
BRANCH   3   5
HETATM    5  C   UNL     1     -39.615  -7.283  -9.803  1.00  0.00     0.110 C 
BRANCH   5   6
HETATM    6  C   UNL     1     -38.589  -6.972 -10.901  1.00  0.00     0.010 C 
BRANCH   6   7
HETATM    7  C   UNL     1     -37.762  -5.730 -10.545  1.00  0.00     0.001 C 
BRANCH   7   8
HETATM    8  C   UNL     1     -36.289  -5.927 -10.923  1.00  0.00     0.000 C 
BRANCH   8   9
HETATM    9  C   UNL     1     -35.646  -7.033 -10.078  1.00  0.00     0.000 C 
BRANCH   9  10
HETATM   10  C   UNL     1     -34.925  -8.048 -10.971  1.00  0.00     0.004 C 
BRANCH  10  11
HETATM   11  C   UNL     1     -34.808  -7.542 -12.411  1.00  0.00     0.027 C 
BRANCH  11  12
HETATM   12  C   UNL     1     -35.021  -8.691 -13.367  1.00  0.00    -0.031 C 
HETATM   13  C   UNL     1     -36.204  -9.169 -13.802  1.00  0.00    -0.031 C 
BRANCH  13  14
HETATM   14  C   UNL     1     -37.583  -8.670 -13.427  1.00  0.00     0.027 C 
BRANCH  14  15
HETATM   15  C   UNL     1     -38.477  -8.518 -14.671  1.00  0.00     0.004 C 
BRANCH  15  16
HETATM   16  C   UNL     1     -38.815  -7.059 -15.038  1.00  0.00     0.000 C 
BRANCH  16  17
HETATM   17  C   UNL     1     -37.851  -6.038 -14.411  1.00  0.00     0.000 C 
BRANCH  17  18
HETATM   18  C   UNL     1     -36.711  -5.689 -15.377  1.00  0.00     0.000 C 
BRANCH  18  19
HETATM   19  C   UNL     1     -37.089  -6.034 -16.822  1.00  0.00    -0.000 C 
BRANCH  19  20
HETATM   20  C   UNL     1     -36.077  -7.004 -17.441  1.00  0.00    -0.005 C 
HETATM   21  C   UNL     1     -34.810  -7.092 -16.596  1.00  0.00     0.005 C 
ENDBRANCH  19  20
ENDBRANCH  18  19
ENDBRANCH  17  18
ENDBRANCH  16  17
ENDBRANCH  15  16
ENDBRANCH  14  15
ENDBRANCH  13  14
ENDBRANCH  11  12
ENDBRANCH  10  11
ENDBRANCH   9  10
ENDBRANCH   8   9
ENDBRANCH   7   8
ENDBRANCH   6   7
ENDBRANCH   5   6
ENDBRANCH   3   5
ENDBRANCH   1   3
TORSDOF 16
ENDMDL
MODEL 15
REMARK VINA RESULT:      -4.4     33.338     34.363
REMARK  16 active torsions:
REMARK  status: ('A' for Active; 'I' for Inactive)
REMARK    1  A    between atoms: O_1  and  C_20 
REMARK    2  A    between atoms: C_3  and  C_4 
REMARK    3  A    between atoms: C_3  and  C_5 
REMARK    4  A    between atoms: C_4  and  C_8 
REMARK    5  A    between atoms: C_5  and  C_11 
REMARK    6  A    between atoms: C_6  and  C_7 
REMARK    7  A    between atoms: C_6  and  C_9 
REMARK    8  A    between atoms: C_7  and  C_10 
REMARK    9  A    between atoms: C_8  and  C_12 
REMARK   10  A    between atoms: C_9  and  C_13 
REMARK   11  A    between atoms: C_10  and  C_14 
REMARK   12  A    between atoms: C_11  and  C_15 
REMARK   13  A    between atoms: C_12  and  C_16 
REMARK   14  A    between atoms: C_13  and  C_17 
REMARK   15  A    between atoms: C_14  and  C_18 
REMARK   16  A    between atoms: C_18  and  C_20 
ROOT
HETATM    1  O   UNL     1     -27.462  18.269 -16.524  1.00  0.00    -0.776 OA
HETATM    2  H   UNL     1     -27.078  19.047 -16.954  1.00  0.00     0.167 HD
ENDROOT
BRANCH   1   3
HETATM    3  C   UNL     1     -26.686  17.323 -15.956  1.00  0.00     0.139 C 
HETATM    4  O   UNL     1     -25.591  17.065 -16.437  1.00  0.00    -0.650 OA
BRANCH   3   5
HETATM    5  C   UNL     1     -27.190  16.602 -14.733  1.00  0.00     0.110 C 
BRANCH   5   6
HETATM    6  C   UNL     1     -26.166  15.621 -14.147  1.00  0.00     0.010 C 
BRANCH   6   7
HETATM    7  C   UNL     1     -26.565  14.169 -14.439  1.00  0.00     0.001 C 
BRANCH   7   8
HETATM    8  C   UNL     1     -25.876  13.656 -15.708  1.00  0.00     0.000 C 
BRANCH   8   9
HETATM    9  C   UNL     1     -26.872  12.939 -16.626  1.00  0.00     0.000 C 
BRANCH   9  10
HETATM   10  C   UNL     1     -27.245  13.825 -17.819  1.00  0.00     0.004 C 
BRANCH  10  11
HETATM   11  C   UNL     1     -28.550  14.584 -17.564  1.00  0.00     0.027 C 
BRANCH  11  12
HETATM   12  C   UNL     1     -29.677  13.909 -18.308  1.00  0.00    -0.031 C 
HETATM   13  C   UNL     1     -30.499  12.952 -17.831  1.00  0.00    -0.031 C 
BRANCH  13  14
HETATM   14  C   UNL     1     -30.473  12.333 -16.450  1.00  0.00     0.027 C 
BRANCH  14  15
HETATM   15  C   UNL     1     -31.102  13.273 -15.407  1.00  0.00     0.004 C 
BRANCH  15  16
HETATM   16  C   UNL     1     -30.171  13.636 -14.232  1.00  0.00     0.000 C 
BRANCH  16  17
HETATM   17  C   UNL     1     -30.637  13.055 -12.887  1.00  0.00     0.000 C 
BRANCH  17  18
HETATM   18  C   UNL     1     -29.454  12.863 -11.928  1.00  0.00     0.000 C 
BRANCH  18  19
HETATM   19  C   UNL     1     -28.801  14.207 -11.584  1.00  0.00    -0.000 C 
BRANCH  19  20
HETATM   20  C   UNL     1     -27.901  14.083 -10.349  1.00  0.00    -0.005 C 
HETATM   21  C   UNL     1     -26.451  13.829 -10.748  1.00  0.00     0.005 C 
ENDBRANCH  19  20
ENDBRANCH  18  19
ENDBRANCH  17  18
ENDBRANCH  16  17
ENDBRANCH  15  16
ENDBRANCH  14  15
ENDBRANCH  13  14
ENDBRANCH  11  12
ENDBRANCH  10  11
ENDBRANCH   9  10
ENDBRANCH   8   9
ENDBRANCH   7   8
ENDBRANCH   6   7
ENDBRANCH   5   6
ENDBRANCH   3   5
ENDBRANCH   1   3
TORSDOF 16
ENDMDL
MODEL 16
REMARK VINA RESULT:      -4.4     33.447     34.404
REMARK  16 active torsions:
REMARK  status: ('A' for Active; 'I' for Inactive)
REMARK    1  A    between atoms: O_1  and  C_20 
REMARK    2  A    between atoms: C_3  and  C_4 
REMARK    3  A    between atoms: C_3  and  C_5 
REMARK    4  A    between atoms: C_4  and  C_8 
REMARK    5  A    between atoms: C_5  and  C_11 
REMARK    6  A    between atoms: C_6  and  C_7 
REMARK    7  A    between atoms: C_6  and  C_9 
REMARK    8  A    between atoms: C_7  and  C_10 
REMARK    9  A    between atoms: C_8  and  C_12 
REMARK   10  A    between atoms: C_9  and  C_13 
REMARK   11  A    between atoms: C_10  and  C_14 
REMARK   12  A    between atoms: C_11  and  C_15 
REMARK   13  A    between atoms: C_12  and  C_16 
REMARK   14  A    between atoms: C_13  and  C_17 
REMARK   15  A    between atoms: C_14  and  C_18 
REMARK   16  A    between atoms: C_18  and  C_20 
ROOT
HETATM    1  O   UNL     1     -36.402  -9.396 -16.345  1.00  0.00    -0.776 OA
HETATM    2  H   UNL     1     -37.105  -9.785 -16.884  1.00  0.00     0.167 HD
ENDROOT
BRANCH   1   3
HETATM    3  C   UNL     1     -35.399  -8.684 -16.901  1.00  0.00     0.139 C 
HETATM    4  O   UNL     1     -34.393  -9.258 -17.296  1.00  0.00    -0.650 OA
BRANCH   3   5
HETATM    5  C   UNL     1     -35.544  -7.190 -17.023  1.00  0.00     0.110 C 
BRANCH   5   6
HETATM    6  C   UNL     1     -36.658  -6.768 -17.991  1.00  0.00     0.010 C 
BRANCH   6   7
HETATM    7  C   UNL     1     -37.712  -5.914 -17.277  1.00  0.00     0.001 C 
BRANCH   7   8
HETATM    8  C   UNL     1     -37.049  -4.829 -16.422  1.00  0.00     0.000 C 
BRANCH   8   9
HETATM    9  C   UNL     1     -37.676  -4.768 -15.024  1.00  0.00     0.000 C 
BRANCH   9  10
HETATM   10  C   UNL     1     -38.424  -6.067 -14.707  1.00  0.00     0.004 C 
BRANCH  10  11
HETATM   11  C   UNL     1     -37.876  -6.735 -13.443  1.00  0.00     0.027 C 
BRANCH  11  12
HETATM   12  C   UNL     1     -36.424  -7.091 -13.654  1.00  0.00    -0.031 C 
HETATM   13  C   UNL     1     -35.592  -7.651 -12.752  1.00  0.00    -0.031 C 
BRANCH  13  14
HETATM   14  C   UNL     1     -35.920  -8.040 -11.326  1.00  0.00     0.027 C 
BRANCH  14  15
HETATM   15  C   UNL     1     -35.410  -6.985 -10.330  1.00  0.00     0.004 C 
BRANCH  15  16
HETATM   16  C   UNL     1     -36.004  -7.108  -8.912  1.00  0.00     0.000 C 
BRANCH  16  17
HETATM   17  C   UNL     1     -37.540  -7.177  -8.902  1.00  0.00     0.000 C 
BRANCH  17  18
HETATM   18  C   UNL     1     -38.118  -6.470  -7.669  1.00  0.00     0.000 C 
BRANCH  18  19
HETATM   19  C   UNL     1     -37.459  -5.100  -7.462  1.00  0.00    -0.000 C 
BRANCH  19  20
HETATM   20  C   UNL     1     -37.949  -4.442  -6.167  1.00  0.00    -0.005 C 
HETATM   21  C   UNL     1     -37.209  -4.996  -4.954  1.00  0.00     0.005 C 
ENDBRANCH  19  20
ENDBRANCH  18  19
ENDBRANCH  17  18
ENDBRANCH  16  17
ENDBRANCH  15  16
ENDBRANCH  14  15
ENDBRANCH  13  14
ENDBRANCH  11  12
ENDBRANCH  10  11
ENDBRANCH   9  10
ENDBRANCH   8   9
ENDBRANCH   7   8
ENDBRANCH   6   7
ENDBRANCH   5   6
ENDBRANCH   3   5
ENDBRANCH   1   3
TORSDOF 16
ENDMDL
MODEL 17
REMARK VINA RESULT:      -4.4     33.612     35.725
REMARK  16 active torsions:
REMARK  status: ('A' for Active; 'I' for Inactive)
REMARK    1  A    between atoms: O_1  and  C_20 
REMARK    2  A    between atoms: C_3  and  C_4 
REMARK    3  A    between atoms: C_3  and  C_5 
REMARK    4  A    between atoms: C_4  and  C_8 
REMARK    5  A    between atoms: C_5  and  C_11 
REMARK    6  A    between atoms: C_6  and  C_7 
REMARK    7  A    between atoms: C_6  and  C_9 
REMARK    8  A    between atoms: C_7  and  C_10 
REMARK    9  A    between atoms: C_8  and  C_12 
REMARK   10  A    between atoms: C_9  and  C_13 
REMARK   11  A    between atoms: C_10  and  C_14 
REMARK   12  A    between atoms: C_11  and  C_15 
REMARK   13  A    between atoms: C_12  and  C_16 
REMARK   14  A    between atoms: C_13  and  C_17 
REMARK   15  A    between atoms: C_14  and  C_18 
REMARK   16  A    between atoms: C_18  and  C_20 
ROOT
HETATM    1  O   UNL     1     -34.097  -7.624  -7.915  1.00  0.00    -0.776 OA
HETATM    2  H   UNL     1     -33.638  -6.914  -8.385  1.00  0.00     0.167 HD
ENDROOT
BRANCH   1   3
HETATM    3  C   UNL     1     -34.558  -7.454  -6.658  1.00  0.00     0.139 C 
HETATM    4  O   UNL     1     -33.926  -7.908  -5.713  1.00  0.00    -0.650 OA
BRANCH   3   5
HETATM    5  C   UNL     1     -35.848  -6.706  -6.447  1.00  0.00     0.110 C 
BRANCH   5   6
HETATM    6  C   UNL     1     -36.860  -6.917  -7.581  1.00  0.00     0.010 C 
BRANCH   6   7
HETATM    7  C   UNL     1     -37.527  -5.594  -7.976  1.00  0.00     0.001 C 
BRANCH   7   8
HETATM    8  C   UNL     1     -37.417  -5.356  -9.486  1.00  0.00     0.000 C 
BRANCH   8   9
HETATM    9  C   UNL     1     -36.402  -6.313 -10.123  1.00  0.00     0.000 C 
BRANCH   9  10
HETATM   10  C   UNL     1     -36.681  -6.483 -11.620  1.00  0.00     0.004 C 
BRANCH  10  11
HETATM   11  C   UNL     1     -37.871  -5.630 -12.067  1.00  0.00     0.027 C 
BRANCH  11  12
HETATM   12  C   UNL     1     -37.507  -4.884 -13.329  1.00  0.00    -0.031 C 
HETATM   13  C   UNL     1     -37.820  -5.236 -14.592  1.00  0.00    -0.031 C 
BRANCH  13  14
HETATM   14  C   UNL     1     -38.598  -6.458 -15.033  1.00  0.00     0.027 C 
BRANCH  14  15
HETATM   15  C   UNL     1     -37.692  -7.701 -15.097  1.00  0.00     0.004 C 
BRANCH  15  16
HETATM   16  C   UNL     1     -36.312  -7.449 -15.739  1.00  0.00     0.000 C 
BRANCH  16  17
HETATM   17  C   UNL     1     -36.035  -8.351 -16.953  1.00  0.00     0.000 C 
BRANCH  17  18
HETATM   18  C   UNL     1     -35.106  -7.655 -17.958  1.00  0.00     0.000 C 
BRANCH  18  19
HETATM   19  C   UNL     1     -35.903  -7.080 -19.135  1.00  0.00    -0.000 C 
BRANCH  19  20
HETATM   20  C   UNL     1     -37.351  -6.783 -18.728  1.00  0.00    -0.005 C 
HETATM   21  C   UNL     1     -37.657  -5.292 -18.831  1.00  0.00     0.005 C 
ENDBRANCH  19  20
ENDBRANCH  18  19
ENDBRANCH  17  18
ENDBRANCH  16  17
ENDBRANCH  15  16
ENDBRANCH  14  15
ENDBRANCH  13  14
ENDBRANCH  11  12
ENDBRANCH  10  11
ENDBRANCH   9  10
ENDBRANCH   8   9
ENDBRANCH   7   8
ENDBRANCH   6   7
ENDBRANCH   5   6
ENDBRANCH   3   5
ENDBRANCH   1   3
TORSDOF 16
ENDMDL
MODEL 18
REMARK VINA RESULT:      -4.4     34.143     36.068
REMARK  16 active torsions:
REMARK  status: ('A' for Active; 'I' for Inactive)
REMARK    1  A    between atoms: O_1  and  C_20 
REMARK    2  A    between atoms: C_3  and  C_4 
REMARK    3  A    between atoms: C_3  and  C_5 
REMARK    4  A    between atoms: C_4  and  C_8 
REMARK    5  A    between atoms: C_5  and  C_11 
REMARK    6  A    between atoms: C_6  and  C_7 
REMARK    7  A    between atoms: C_6  and  C_9 
REMARK    8  A    between atoms: C_7  and  C_10 
REMARK    9  A    between atoms: C_8  and  C_12 
REMARK   10  A    between atoms: C_9  and  C_13 
REMARK   11  A    between atoms: C_10  and  C_14 
REMARK   12  A    between atoms: C_11  and  C_15 
REMARK   13  A    between atoms: C_12  and  C_16 
REMARK   14  A    between atoms: C_13  and  C_17 
REMARK   15  A    between atoms: C_14  and  C_18 
REMARK   16  A    between atoms: C_18  and  C_20 
ROOT
HETATM    1  O   UNL     1     -37.459  -6.669  -8.466  1.00  0.00    -0.776 OA
HETATM    2  H   UNL     1     -37.960  -7.322  -8.976  1.00  0.00     0.167 HD
ENDROOT
BRANCH   1   3
HETATM    3  C   UNL     1     -37.715  -5.348  -8.567  1.00  0.00     0.139 C 
HETATM    4  O   UNL     1     -37.519  -4.616  -7.607  1.00  0.00    -0.650 OA
BRANCH   3   5
HETATM    5  C   UNL     1     -38.240  -4.803  -9.869  1.00  0.00     0.110 C 
BRANCH   5   6
HETATM    6  C   UNL     1     -37.878  -5.677 -11.079  1.00  0.00     0.010 C 
BRANCH   6   7
HETATM    7  C   UNL     1     -37.435  -4.814 -12.267  1.00  0.00     0.001 C 
BRANCH   7   8
HETATM    8  C   UNL     1     -37.154  -5.682 -13.498  1.00  0.00     0.000 C 
BRANCH   8   9
HETATM    9  C   UNL     1     -37.452  -4.916 -14.792  1.00  0.00     0.000 C 
BRANCH   9  10
HETATM   10  C   UNL     1     -38.597  -5.580 -15.565  1.00  0.00     0.004 C 
BRANCH  10  11
HETATM   11  C   UNL     1     -38.889  -6.985 -15.032  1.00  0.00     0.027 C 
BRANCH  11  12
HETATM   12  C   UNL     1     -38.604  -8.001 -16.112  1.00  0.00    -0.031 C 
HETATM   13  C   UNL     1     -37.560  -8.853 -16.161  1.00  0.00    -0.031 C 
BRANCH  13  14
HETATM   14  C   UNL     1     -36.436  -8.979 -15.154  1.00  0.00     0.027 C 
BRANCH  14  15
HETATM   15  C   UNL     1     -35.176  -8.235 -15.631  1.00  0.00     0.004 C 
BRANCH  15  16
HETATM   16  C   UNL     1     -35.429  -7.210 -16.756  1.00  0.00     0.000 C 
BRANCH  16  17
HETATM   17  C   UNL     1     -34.851  -7.644 -18.113  1.00  0.00     0.000 C 
BRANCH  17  18
HETATM   18  C   UNL     1     -35.944  -7.697 -19.188  1.00  0.00     0.000 C 
BRANCH  18  19
HETATM   19  C   UNL     1     -36.872  -6.481 -19.090  1.00  0.00    -0.000 C 
BRANCH  19  20
HETATM   20  C   UNL     1     -36.802  -5.629 -20.362  1.00  0.00    -0.005 C 
HETATM   21  C   UNL     1     -37.954  -4.630 -20.421  1.00  0.00     0.005 C 
ENDBRANCH  19  20
ENDBRANCH  18  19
ENDBRANCH  17  18
ENDBRANCH  16  17
ENDBRANCH  15  16
ENDBRANCH  14  15
ENDBRANCH  13  14
ENDBRANCH  11  12
ENDBRANCH  10  11
ENDBRANCH   9  10
ENDBRANCH   8   9
ENDBRANCH   7   8
ENDBRANCH   6   7
ENDBRANCH   5   6
ENDBRANCH   3   5
ENDBRANCH   1   3
TORSDOF 16
ENDMDL
MODEL 19
REMARK VINA RESULT:      -4.4     57.823     59.573
REMARK  16 active torsions:
REMARK  status: ('A' for Active; 'I' for Inactive)
REMARK    1  A    between atoms: O_1  and  C_20 
REMARK    2  A    between atoms: C_3  and  C_4 
REMARK    3  A    between atoms: C_3  and  C_5 
REMARK    4  A    between atoms: C_4  and  C_8 
REMARK    5  A    between atoms: C_5  and  C_11 
REMARK    6  A    between atoms: C_6  and  C_7 
REMARK    7  A    between atoms: C_6  and  C_9 
REMARK    8  A    between atoms: C_7  and  C_10 
REMARK    9  A    between atoms: C_8  and  C_12 
REMARK   10  A    between atoms: C_9  and  C_13 
REMARK   11  A    between atoms: C_10  and  C_14 
REMARK   12  A    between atoms: C_11  and  C_15 
REMARK   13  A    between atoms: C_12  and  C_16 
REMARK   14  A    between atoms: C_13  and  C_17 
REMARK   15  A    between atoms: C_14  and  C_18 
REMARK   16  A    between atoms: C_18  and  C_20 
ROOT
HETATM    1  O   UNL     1     -54.617  21.113 -11.051  1.00  0.00    -0.776 OA
HETATM    2  H   UNL     1     -53.955  20.660 -10.509  1.00  0.00     0.167 HD
ENDROOT
BRANCH   1   3
HETATM    3  C   UNL     1     -54.923  20.685 -12.294  1.00  0.00     0.139 C 
HETATM    4  O   UNL     1     -56.053  20.282 -12.537  1.00  0.00    -0.650 OA
BRANCH   3   5
HETATM    5  C   UNL     1     -53.859  20.715 -13.360  1.00  0.00     0.110 C 
BRANCH   5   6
HETATM    6  C   UNL     1     -53.721  22.086 -14.036  1.00  0.00     0.010 C 
BRANCH   6   7
HETATM    7  C   UNL     1     -53.557  21.935 -15.554  1.00  0.00     0.001 C 
BRANCH   7   8
HETATM    8  C   UNL     1     -54.754  21.200 -16.163  1.00  0.00     0.000 C 
BRANCH   8   9
HETATM    9  C   UNL     1     -54.349  20.445 -17.435  1.00  0.00     0.000 C 
BRANCH   9  10
HETATM   10  C   UNL     1     -52.869  20.054 -17.386  1.00  0.00     0.004 C 
BRANCH  10  11
HETATM   11  C   UNL     1     -52.274  19.939 -18.792  1.00  0.00     0.027 C 
BRANCH  11  12
HETATM   12  C   UNL     1     -51.623  21.248 -19.170  1.00  0.00    -0.031 C 
HETATM   13  C   UNL     1     -52.203  22.281 -19.813  1.00  0.00    -0.031 C 
BRANCH  13  14
HETATM   14  C   UNL     1     -53.631  22.362 -20.309  1.00  0.00     0.027 C 
BRANCH  14  15
HETATM   15  C   UNL     1     -53.705  22.145 -21.831  1.00  0.00     0.004 C 
BRANCH  15  16
HETATM   16  C   UNL     1     -53.682  20.665 -22.264  1.00  0.00     0.000 C 
BRANCH  16  17
HETATM   17  C   UNL     1     -52.287  20.180 -22.692  1.00  0.00     0.000 C 
BRANCH  17  18
HETATM   18  C   UNL     1     -52.234  19.910 -24.201  1.00  0.00     0.000 C 
BRANCH  18  19
HETATM   19  C   UNL     1     -52.880  21.056 -24.988  1.00  0.00    -0.000 C 
BRANCH  19  20
HETATM   20  C   UNL     1     -51.903  22.224 -25.166  1.00  0.00    -0.005 C 
HETATM   21  C   UNL     1     -52.645  23.522 -25.467  1.00  0.00     0.005 C 
ENDBRANCH  19  20
ENDBRANCH  18  19
ENDBRANCH  17  18
ENDBRANCH  16  17
ENDBRANCH  15  16
ENDBRANCH  14  15
ENDBRANCH  13  14
ENDBRANCH  11  12
ENDBRANCH  10  11
ENDBRANCH   9  10
ENDBRANCH   8   9
ENDBRANCH   7   8
ENDBRANCH   6   7
ENDBRANCH   5   6
ENDBRANCH   3   5
ENDBRANCH   1   3
TORSDOF 16
ENDMDL
MODEL 20
REMARK VINA RESULT:      -4.4     23.964     24.612
REMARK  16 active torsions:
REMARK  status: ('A' for Active; 'I' for Inactive)
REMARK    1  A    between atoms: O_1  and  C_20 
REMARK    2  A    between atoms: C_3  and  C_4 
REMARK    3  A    between atoms: C_3  and  C_5 
REMARK    4  A    between atoms: C_4  and  C_8 
REMARK    5  A    between atoms: C_5  and  C_11 
REMARK    6  A    between atoms: C_6  and  C_7 
REMARK    7  A    between atoms: C_6  and  C_9 
REMARK    8  A    between atoms: C_7  and  C_10 
REMARK    9  A    between atoms: C_8  and  C_12 
REMARK   10  A    between atoms: C_9  and  C_13 
REMARK   11  A    between atoms: C_10  and  C_14 
REMARK   12  A    between atoms: C_11  and  C_15 
REMARK   13  A    between atoms: C_12  and  C_16 
REMARK   14  A    between atoms: C_13  and  C_17 
REMARK   15  A    between atoms: C_14  and  C_18 
REMARK   16  A    between atoms: C_18  and  C_20 
ROOT
HETATM    1  O   UNL     1      -4.236  16.339 -19.015  1.00  0.00    -0.776 OA
HETATM    2  H   UNL     1      -4.257  17.281 -19.238  1.00  0.00     0.167 HD
ENDROOT
BRANCH   1   3
HETATM    3  C   UNL     1      -4.628  15.397 -19.898  1.00  0.00     0.139 C 
HETATM    4  O   UNL     1      -4.413  15.557 -21.093  1.00  0.00    -0.650 OA
BRANCH   3   5
HETATM    5  C   UNL     1      -5.324  14.163 -19.389  1.00  0.00     0.110 C 
BRANCH   5   6
HETATM    6  C   UNL     1      -6.661  14.467 -18.699  1.00  0.00     0.010 C 
BRANCH   6   7
HETATM    7  C   UNL     1      -7.575  15.295 -19.610  1.00  0.00     0.001 C 
BRANCH   7   8
HETATM    8  C   UNL     1      -8.433  16.264 -18.789  1.00  0.00     0.000 C 
BRANCH   8   9
HETATM    9  C   UNL     1      -7.561  17.310 -18.083  1.00  0.00     0.000 C 
BRANCH   9  10
HETATM   10  C   UNL     1      -7.931  17.413 -16.600  1.00  0.00     0.004 C 
BRANCH  10  11
HETATM   11  C   UNL     1      -8.856  16.271 -16.174  1.00  0.00     0.027 C 
BRANCH  11  12
HETATM   12  C   UNL     1      -8.634  15.964 -14.712  1.00  0.00    -0.031 C 
HETATM   13  C   UNL     1      -7.803  15.034 -14.201  1.00  0.00    -0.031 C 
BRANCH  13  14
HETATM   14  C   UNL     1      -6.912  14.083 -14.973  1.00  0.00     0.027 C 
BRANCH  14  15
HETATM   15  C   UNL     1      -5.425  14.412 -14.754  1.00  0.00     0.004 C 
BRANCH  15  16
HETATM   16  C   UNL     1      -4.892  15.563 -15.631  1.00  0.00     0.000 C 
BRANCH  16  17
HETATM   17  C   UNL     1      -4.614  16.851 -14.839  1.00  0.00     0.000 C 
BRANCH  17  18
HETATM   18  C   UNL     1      -4.565  16.572 -13.331  1.00  0.00     0.000 C 
BRANCH  18  19
HETATM   19  C   UNL     1      -4.960  17.818 -12.528  1.00  0.00    -0.000 C 
BRANCH  19  20
HETATM   20  C   UNL     1      -6.480  18.021 -12.538  1.00  0.00    -0.005 C 
HETATM   21  C   UNL     1      -6.877  19.156 -13.476  1.00  0.00     0.005 C 
ENDBRANCH  19  20
ENDBRANCH  18  19
ENDBRANCH  17  18
ENDBRANCH  16  17
ENDBRANCH  15  16
ENDBRANCH  14  15
ENDBRANCH  13  14
ENDBRANCH  11  12
ENDBRANCH  10  11
ENDBRANCH   9  10
ENDBRANCH   8   9
ENDBRANCH   7   8
ENDBRANCH   6   7
ENDBRANCH   5   6
ENDBRANCH   3   5
ENDBRANCH   1   3
TORSDOF 16
ENDMDL
