MODEL 1
REMARK VINA RESULT:      -6.5      0.000      0.000
REMARK  2 active torsions:
REMARK  status: ('A' for Active; 'I' for Inactive)
REMARK    1  A    between atoms: N_3  and  C_15 
REMARK    2  A    between atoms: C_5  and  C_7 
ROOT
HETATM    1  S   UNL     1     -37.942  -5.888 -14.257  1.00  0.00    -0.069 SA
HETATM    2  N   UNL     1     -35.763  -7.053 -13.694  1.00  0.00    -0.344 N 
HETATM    3  C   UNL     1     -35.870  -7.017 -15.062  1.00  0.00     0.052 A 
HETATM    4  C   UNL     1     -36.834  -6.434 -13.090  1.00  0.00     0.087 A 
HETATM    5  C   UNL     1     -37.017  -6.407 -15.544  1.00  0.00     0.034 A 
HETATM    6  C   UNL     1     -34.943  -7.550 -15.974  1.00  0.00     0.031 A 
HETATM    7  C   UNL     1     -37.294  -6.289 -16.903  1.00  0.00     0.028 A 
HETATM    8  C   UNL     1     -34.647  -7.747 -13.036  1.00  0.00     0.157 C 
HETATM    9  C   UNL     1     -36.368  -6.814 -17.823  1.00  0.00    -0.061 A 
HETATM   10  C   UNL     1     -35.196  -7.444 -17.351  1.00  0.00     0.009 A 
HETATM   11  C   UNL     1     -36.614  -6.715 -19.299  1.00  0.00     0.048 C 
ENDROOT
BRANCH   4  12
HETATM   12  C   UNL     1     -37.066  -6.193 -11.629  1.00  0.00    -0.002 A 
HETATM   13  C   UNL     1     -37.347  -4.921 -11.098  1.00  0.00     0.016 A 
HETATM   14  C   UNL     1     -37.579  -4.745  -9.731  1.00  0.00     0.030 A 
HETATM   15  C   UNL     1     -37.550  -5.836  -8.837  1.00  0.00     0.029 A 
HETATM   16  C   UNL     1     -37.291  -7.113  -9.377  1.00  0.00     0.030 A 
HETATM   17  C   UNL     1     -37.064  -7.286 -10.745  1.00  0.00     0.016 A 
BRANCH  15  18
HETATM   18  N   UNL     1     -37.789  -5.655  -7.424  1.00  0.00    -0.390 N 
HETATM   19  C   UNL     1     -37.692  -4.333  -6.819  1.00  0.00     0.149 C 
HETATM   20  C   UNL     1     -38.131  -6.790  -6.578  1.00  0.00     0.149 C 
ENDBRANCH  15  18
ENDBRANCH   4  12
TORSDOF 2
ENDMDL
MODEL 2
REMARK VINA RESULT:      -6.5      1.481      2.130
REMARK  2 active torsions:
REMARK  status: ('A' for Active; 'I' for Inactive)
REMARK    1  A    between atoms: N_3  and  C_15 
REMARK    2  A    between atoms: C_5  and  C_7 
ROOT
HETATM    1  S   UNL     1     -37.592  -4.846 -14.761  1.00  0.00    -0.069 SA
HETATM    2  N   UNL     1     -36.787  -7.228 -15.075  1.00  0.00    -0.344 N 
HETATM    3  C   UNL     1     -36.994  -6.695 -16.322  1.00  0.00     0.052 A 
HETATM    4  C   UNL     1     -37.051  -6.309 -14.085  1.00  0.00     0.087 A 
HETATM    5  C   UNL     1     -37.441  -5.383 -16.333  1.00  0.00     0.034 A 
HETATM    6  C   UNL     1     -36.807  -7.364 -17.545  1.00  0.00     0.031 A 
HETATM    7  C   UNL     1     -37.710  -4.688 -17.508  1.00  0.00     0.028 A 
HETATM    8  C   UNL     1     -36.401  -8.636 -14.903  1.00  0.00     0.157 C 
HETATM    9  C   UNL     1     -37.520  -5.349 -18.736  1.00  0.00    -0.061 A 
HETATM   10  C   UNL     1     -37.070  -6.686 -18.746  1.00  0.00     0.009 A 
HETATM   11  C   UNL     1     -37.794  -4.648 -20.032  1.00  0.00     0.048 C 
ENDROOT
BRANCH   4  12
HETATM   12  C   UNL     1     -36.884  -6.462 -12.604  1.00  0.00    -0.002 A 
HETATM   13  C   UNL     1     -35.687  -6.900 -12.010  1.00  0.00     0.016 A 
HETATM   14  C   UNL     1     -35.566  -7.008 -10.622  1.00  0.00     0.030 A 
HETATM   15  C   UNL     1     -36.637  -6.671  -9.766  1.00  0.00     0.029 A 
HETATM   16  C   UNL     1     -37.828  -6.210 -10.365  1.00  0.00     0.030 A 
HETATM   17  C   UNL     1     -37.943  -6.100 -11.753  1.00  0.00     0.016 A 
BRANCH  15  18
HETATM   18  N   UNL     1     -36.514  -6.783  -8.331  1.00  0.00    -0.390 N 
HETATM   19  C   UNL     1     -35.377  -7.471  -7.735  1.00  0.00     0.149 C 
HETATM   20  C   UNL     1     -37.525  -6.211  -7.453  1.00  0.00     0.149 C 
ENDBRANCH  15  18
ENDBRANCH   4  12
TORSDOF 2
ENDMDL
MODEL 3
REMARK VINA RESULT:      -6.5      2.048      7.756
REMARK  2 active torsions:
REMARK  status: ('A' for Active; 'I' for Inactive)
REMARK    1  A    between atoms: N_3  and  C_15 
REMARK    2  A    between atoms: C_5  and  C_7 
ROOT
HETATM    1  S   UNL     1     -37.884  -4.453 -11.760  1.00  0.00    -0.069 SA
HETATM    2  N   UNL     1     -37.028  -6.838 -11.764  1.00  0.00    -0.344 N 
HETATM    3  C   UNL     1     -37.118  -6.434 -10.455  1.00  0.00     0.052 A 
HETATM    4  C   UNL     1     -37.449  -5.850 -12.625  1.00  0.00     0.087 A 
HETATM    5  C   UNL     1     -37.575  -5.139 -10.272  1.00  0.00     0.034 A 
HETATM    6  C   UNL     1     -36.776  -7.205  -9.331  1.00  0.00     0.031 A 
HETATM    7  C   UNL     1     -37.720  -4.562  -9.014  1.00  0.00     0.028 A 
HETATM    8  C   UNL     1     -36.474  -8.153 -12.118  1.00  0.00     0.157 C 
HETATM    9  C   UNL     1     -37.386  -5.329  -7.882  1.00  0.00    -0.061 A 
HETATM   10  C   UNL     1     -36.915  -6.649  -8.049  1.00  0.00     0.009 A 
HETATM   11  C   UNL     1     -37.524  -4.759  -6.503  1.00  0.00     0.048 C 
ENDROOT
BRANCH   4  12
HETATM   12  C   UNL     1     -37.577  -5.909 -14.117  1.00  0.00    -0.002 A 
HETATM   13  C   UNL     1     -38.110  -7.019 -14.796  1.00  0.00     0.016 A 
HETATM   14  C   UNL     1     -38.232  -7.023 -16.189  1.00  0.00     0.030 A 
HETATM   15  C   UNL     1     -37.835  -5.911 -16.962  1.00  0.00     0.029 A 
HETATM   16  C   UNL     1     -37.322  -4.791 -16.274  1.00  0.00     0.030 A 
HETATM   17  C   UNL     1     -37.206  -4.789 -14.882  1.00  0.00     0.016 A 
BRANCH  15  18
HETATM   18  N   UNL     1     -37.960  -5.914 -18.400  1.00  0.00    -0.390 N 
HETATM   19  C   UNL     1     -38.431  -7.101 -19.102  1.00  0.00     0.149 C 
HETATM   20  C   UNL     1     -37.616  -4.731 -19.178  1.00  0.00     0.149 C 
ENDBRANCH  15  18
ENDBRANCH   4  12
TORSDOF 2
ENDMDL
MODEL 4
REMARK VINA RESULT:      -6.4      2.600      4.792
REMARK  2 active torsions:
REMARK  status: ('A' for Active; 'I' for Inactive)
REMARK    1  A    between atoms: N_3  and  C_15 
REMARK    2  A    between atoms: C_5  and  C_7 
ROOT
HETATM    1  S   UNL     1     -37.909  -5.941 -18.995  1.00  0.00    -0.069 SA
HETATM    2  N   UNL     1     -35.724  -7.082 -18.406  1.00  0.00    -0.344 N 
HETATM    3  C   UNL     1     -35.825  -7.065 -19.774  1.00  0.00     0.052 A 
HETATM    4  C   UNL     1     -36.803  -6.463 -17.815  1.00  0.00     0.087 A 
HETATM    5  C   UNL     1     -36.974  -6.470 -20.271  1.00  0.00     0.034 A 
HETATM    6  C   UNL     1     -34.889  -7.603 -20.675  1.00  0.00     0.031 A 
HETATM    7  C   UNL     1     -37.245  -6.373 -21.633  1.00  0.00     0.028 A 
HETATM    8  C   UNL     1     -34.607  -7.758 -17.733  1.00  0.00     0.157 C 
HETATM    9  C   UNL     1     -36.310  -6.904 -22.541  1.00  0.00    -0.061 A 
HETATM   10  C   UNL     1     -35.136  -7.517 -22.054  1.00  0.00     0.009 A 
HETATM   11  C   UNL     1     -36.549  -6.826 -24.018  1.00  0.00     0.048 C 
ENDROOT
BRANCH   4  12
HETATM   12  C   UNL     1     -37.045  -6.204 -16.359  1.00  0.00    -0.002 A 
HETATM   13  C   UNL     1     -37.355  -4.931 -15.849  1.00  0.00     0.016 A 
HETATM   14  C   UNL     1     -37.595  -4.738 -14.485  1.00  0.00     0.030 A 
HETATM   15  C   UNL     1     -37.545  -5.813 -13.574  1.00  0.00     0.029 A 
HETATM   16  C   UNL     1     -37.255  -7.093 -14.093  1.00  0.00     0.030 A 
HETATM   17  C   UNL     1     -37.020  -7.283 -15.457  1.00  0.00     0.016 A 
BRANCH  15  18
HETATM   18  N   UNL     1     -37.791  -5.615 -12.165  1.00  0.00    -0.390 N 
HETATM   19  C   UNL     1     -38.136  -6.741 -11.307  1.00  0.00     0.149 C 
HETATM   20  C   UNL     1     -37.702  -4.287 -11.575  1.00  0.00     0.149 C 
ENDBRANCH  15  18
ENDBRANCH   4  12
TORSDOF 2
ENDMDL
MODEL 5
REMARK VINA RESULT:      -6.3      2.097      7.637
REMARK  2 active torsions:
REMARK  status: ('A' for Active; 'I' for Inactive)
REMARK    1  A    between atoms: N_3  and  C_15 
REMARK    2  A    between atoms: C_5  and  C_7 
ROOT
HETATM    1  S   UNL     1     -37.594  -5.882 -12.323  1.00  0.00    -0.069 SA
HETATM    2  N   UNL     1     -35.588  -7.272 -13.006  1.00  0.00    -0.344 N 
HETATM    3  C   UNL     1     -35.637  -7.263 -11.634  1.00  0.00     0.052 A 
HETATM    4  C   UNL     1     -36.636  -6.564 -13.550  1.00  0.00     0.087 A 
HETATM    5  C   UNL     1     -36.686  -6.540 -11.089  1.00  0.00     0.034 A 
HETATM    6  C   UNL     1     -34.723  -7.898 -10.774  1.00  0.00     0.031 A 
HETATM    7  C   UNL     1     -36.884  -6.416  -9.717  1.00  0.00     0.028 A 
HETATM    8  C   UNL     1     -34.482  -7.921 -13.724  1.00  0.00     0.157 C 
HETATM    9  C   UNL     1     -35.978  -7.054  -8.850  1.00  0.00    -0.061 A 
HETATM   10  C   UNL     1     -34.900  -7.791  -9.385  1.00  0.00     0.009 A 
HETATM   11  C   UNL     1     -36.143  -6.955  -7.363  1.00  0.00     0.048 C 
ENDROOT
BRANCH   4  12
HETATM   12  C   UNL     1     -36.989  -6.390 -14.996  1.00  0.00    -0.002 A 
HETATM   13  C   UNL     1     -37.209  -7.472 -15.866  1.00  0.00     0.016 A 
HETATM   14  C   UNL     1     -37.558  -7.264 -17.204  1.00  0.00     0.030 A 
HETATM   15  C   UNL     1     -37.713  -5.962 -17.726  1.00  0.00     0.029 A 
HETATM   16  C   UNL     1     -37.514  -4.879 -16.844  1.00  0.00     0.030 A 
HETATM   17  C   UNL     1     -37.169  -5.092 -15.507  1.00  0.00     0.016 A 
BRANCH  15  18
HETATM   18  N   UNL     1     -38.073  -5.746 -19.108  1.00  0.00    -0.390 N 
HETATM   19  C   UNL     1     -38.951  -6.680 -19.800  1.00  0.00     0.149 C 
HETATM   20  C   UNL     1     -37.566  -4.591 -19.835  1.00  0.00     0.149 C 
ENDBRANCH  15  18
ENDBRANCH   4  12
TORSDOF 2
ENDMDL
MODEL 6
REMARK VINA RESULT:      -6.3      1.755      2.634
REMARK  2 active torsions:
REMARK  status: ('A' for Active; 'I' for Inactive)
REMARK    1  A    between atoms: N_3  and  C_15 
REMARK    2  A    between atoms: C_5  and  C_7 
ROOT
HETATM    1  S   UNL     1     -37.621  -4.768 -11.823  1.00  0.00    -0.069 SA
HETATM    2  N   UNL     1     -36.642  -7.088 -12.103  1.00  0.00    -0.344 N 
HETATM    3  C   UNL     1     -36.847  -6.573 -13.358  1.00  0.00     0.052 A 
HETATM    4  C   UNL     1     -37.000  -6.187 -11.125  1.00  0.00     0.087 A 
HETATM    5  C   UNL     1     -37.384  -5.296 -13.387  1.00  0.00     0.034 A 
HETATM    6  C   UNL     1     -36.576  -7.229 -14.571  1.00  0.00     0.031 A 
HETATM    7  C   UNL     1     -37.665  -4.623 -14.573  1.00  0.00     0.028 A 
HETATM    8  C   UNL     1     -36.163  -8.465 -11.914  1.00  0.00     0.157 C 
HETATM    9  C   UNL     1     -37.391  -5.271 -15.792  1.00  0.00    -0.061 A 
HETATM   10  C   UNL     1     -36.848  -6.573 -15.783  1.00  0.00     0.009 A 
HETATM   11  C   UNL     1     -37.673  -4.593 -17.099  1.00  0.00     0.048 C 
ENDROOT
BRANCH   4  12
HETATM   12  C   UNL     1     -36.867  -6.326  -9.639  1.00  0.00    -0.002 A 
HETATM   13  C   UNL     1     -35.928  -7.176  -9.030  1.00  0.00     0.016 A 
HETATM   14  C   UNL     1     -35.823  -7.258  -7.638  1.00  0.00     0.030 A 
HETATM   15  C   UNL     1     -36.649  -6.485  -6.795  1.00  0.00     0.029 A 
HETATM   16  C   UNL     1     -37.575  -5.616  -7.411  1.00  0.00     0.030 A 
HETATM   17  C   UNL     1     -37.673  -5.533  -8.802  1.00  0.00     0.016 A 
BRANCH  15  18
HETATM   18  N   UNL     1     -36.543  -6.569  -5.358  1.00  0.00    -0.390 N 
HETATM   19  C   UNL     1     -37.483  -5.858  -4.501  1.00  0.00     0.149 C 
HETATM   20  C   UNL     1     -35.493  -7.365  -4.736  1.00  0.00     0.149 C 
ENDBRANCH  15  18
ENDBRANCH   4  12
TORSDOF 2
ENDMDL
MODEL 7
REMARK VINA RESULT:      -6.3      2.043      8.121
REMARK  2 active torsions:
REMARK  status: ('A' for Active; 'I' for Inactive)
REMARK    1  A    between atoms: N_3  and  C_15 
REMARK    2  A    between atoms: C_5  and  C_7 
ROOT
HETATM    1  S   UNL     1     -36.360  -7.838 -12.974  1.00  0.00    -0.069 SA
HETATM    2  N   UNL     1     -37.186  -5.619 -13.878  1.00  0.00    -0.344 N 
HETATM    3  C   UNL     1     -37.303  -5.577 -12.512  1.00  0.00     0.052 A 
HETATM    4  C   UNL     1     -36.646  -6.813 -14.300  1.00  0.00     0.087 A 
HETATM    5  C   UNL     1     -36.890  -6.723 -11.852  1.00  0.00     0.034 A 
HETATM    6  C   UNL     1     -37.807  -4.500 -11.762  1.00  0.00     0.031 A 
HETATM    7  C   UNL     1     -36.945  -6.858 -10.468  1.00  0.00     0.028 A 
HETATM    8  C   UNL     1     -37.668  -4.514 -14.719  1.00  0.00     0.157 C 
HETATM    9  C   UNL     1     -37.443  -5.782  -9.710  1.00  0.00    -0.061 A 
HETATM   10  C   UNL     1     -37.872  -4.608 -10.364  1.00  0.00     0.009 A 
HETATM   11  C   UNL     1     -37.525  -5.872  -8.216  1.00  0.00     0.048 C 
ENDROOT
BRANCH   4  12
HETATM   12  C   UNL     1     -36.288  -7.233 -15.693  1.00  0.00    -0.002 A 
HETATM   13  C   UNL     1     -37.245  -7.646 -16.637  1.00  0.00     0.016 A 
HETATM   14  C   UNL     1     -36.870  -8.008 -17.935  1.00  0.00     0.030 A 
HETATM   15  C   UNL     1     -35.522  -7.962 -18.347  1.00  0.00     0.029 A 
HETATM   16  C   UNL     1     -34.568  -7.525 -17.403  1.00  0.00     0.030 A 
HETATM   17  C   UNL     1     -34.947  -7.160 -16.109  1.00  0.00     0.016 A 
BRANCH  15  18
HETATM   18  N   UNL     1     -35.133  -8.337 -19.686  1.00  0.00    -0.390 N 
HETATM   19  C   UNL     1     -34.598  -9.664 -19.959  1.00  0.00     0.149 C 
HETATM   20  C   UNL     1     -35.268  -7.395 -20.789  1.00  0.00     0.149 C 
ENDBRANCH  15  18
ENDBRANCH   4  12
TORSDOF 2
ENDMDL
MODEL 8
REMARK VINA RESULT:      -6.3      2.080      8.228
REMARK  2 active torsions:
REMARK  status: ('A' for Active; 'I' for Inactive)
REMARK    1  A    between atoms: N_3  and  C_15 
REMARK    2  A    between atoms: C_5  and  C_7 
ROOT
HETATM    1  S   UNL     1     -37.662  -4.834 -14.533  1.00  0.00    -0.069 SA
HETATM    2  N   UNL     1     -36.183  -6.882 -14.331  1.00  0.00    -0.344 N 
HETATM    3  C   UNL     1     -36.498  -6.474 -13.060  1.00  0.00     0.052 A 
HETATM    4  C   UNL     1     -36.782  -6.083 -15.279  1.00  0.00     0.087 A 
HETATM    5  C   UNL     1     -37.310  -5.354 -12.988  1.00  0.00     0.034 A 
HETATM    6  C   UNL     1     -36.059  -7.079 -11.869  1.00  0.00     0.031 A 
HETATM    7  C   UNL     1     -37.721  -4.797 -11.780  1.00  0.00     0.028 A 
HETATM    8  C   UNL     1     -35.258  -8.000 -14.565  1.00  0.00     0.157 C 
HETATM    9  C   UNL     1     -37.291  -5.400 -10.584  1.00  0.00    -0.061 A 
HETATM   10  C   UNL     1     -36.461  -6.539 -10.636  1.00  0.00     0.009 A 
HETATM   11  C   UNL     1     -37.704  -4.844  -9.255  1.00  0.00     0.048 C 
ENDROOT
BRANCH   4  12
HETATM   12  C   UNL     1     -36.754  -6.227 -16.770  1.00  0.00    -0.002 A 
HETATM   13  C   UNL     1     -35.944  -7.165 -17.434  1.00  0.00     0.016 A 
HETATM   14  C   UNL     1     -35.966  -7.281 -18.827  1.00  0.00     0.030 A 
HETATM   15  C   UNL     1     -36.807  -6.469 -19.616  1.00  0.00     0.029 A 
HETATM   16  C   UNL     1     -37.635  -5.544 -18.944  1.00  0.00     0.030 A 
HETATM   17  C   UNL     1     -37.614  -5.434 -17.552  1.00  0.00     0.016 A 
BRANCH  15  18
HETATM   18  N   UNL     1     -36.830  -6.587 -21.055  1.00  0.00    -0.390 N 
HETATM   19  C   UNL     1     -37.576  -5.634 -21.866  1.00  0.00     0.149 C 
HETATM   20  C   UNL     1     -36.110  -7.662 -21.723  1.00  0.00     0.149 C 
ENDBRANCH  15  18
ENDBRANCH   4  12
TORSDOF 2
ENDMDL
MODEL 9
REMARK VINA RESULT:      -6.3     36.296     38.208
REMARK  2 active torsions:
REMARK  status: ('A' for Active; 'I' for Inactive)
REMARK    1  A    between atoms: N_3  and  C_15 
REMARK    2  A    between atoms: C_5  and  C_7 
ROOT
HETATM    1  S   UNL     1     -22.389  26.315  -8.444  1.00  0.00    -0.069 SA
HETATM    2  N   UNL     1     -20.903  28.363  -8.322  1.00  0.00    -0.344 N 
HETATM    3  C   UNL     1     -21.145  27.951  -7.035  1.00  0.00     0.052 A 
HETATM    4  C   UNL     1     -21.509  27.533  -9.238  1.00  0.00     0.087 A 
HETATM    5  C   UNL     1     -21.950  26.830  -6.920  1.00  0.00     0.034 A 
HETATM    6  C   UNL     1     -20.665  28.571  -5.869  1.00  0.00     0.031 A 
HETATM    7  C   UNL     1     -22.305  26.279  -5.692  1.00  0.00     0.028 A 
HETATM    8  C   UNL     1     -20.141  29.589  -8.598  1.00  0.00     0.157 C 
HETATM    9  C   UNL     1     -21.824  26.890  -4.520  1.00  0.00    -0.061 A 
HETATM   10  C   UNL     1     -21.005  28.036  -4.616  1.00  0.00     0.009 A 
HETATM   11  C   UNL     1     -22.173  26.339  -3.170  1.00  0.00     0.048 C 
ENDROOT
BRANCH   4  12
HETATM   12  C   UNL     1     -21.436  27.587 -10.733  1.00  0.00    -0.002 A 
HETATM   13  C   UNL     1     -20.688  28.554 -11.429  1.00  0.00     0.016 A 
HETATM   14  C   UNL     1     -20.630  28.554 -12.826  1.00  0.00     0.030 A 
HETATM   15  C   UNL     1     -21.309  27.579 -13.587  1.00  0.00     0.029 A 
HETATM   16  C   UNL     1     -22.039  26.597 -12.884  1.00  0.00     0.030 A 
HETATM   17  C   UNL     1     -22.092  26.598 -11.488  1.00  0.00     0.016 A 
BRANCH  15  18
HETATM   18  N   UNL     1     -21.250  27.579 -15.030  1.00  0.00    -0.390 N 
HETATM   19  C   UNL     1     -21.997  26.595 -15.802  1.00  0.00     0.149 C 
HETATM   20  C   UNL     1     -20.442  28.560 -15.740  1.00  0.00     0.149 C 
ENDBRANCH  15  18
ENDBRANCH   4  12
TORSDOF 2
ENDMDL
MODEL 10
REMARK VINA RESULT:      -6.2      2.068      8.231
REMARK  2 active torsions:
REMARK  status: ('A' for Active; 'I' for Inactive)
REMARK    1  A    between atoms: N_3  and  C_15 
REMARK    2  A    between atoms: C_5  and  C_7 
ROOT
HETATM    1  S   UNL     1     -36.334  -7.730  -8.559  1.00  0.00    -0.069 SA
HETATM    2  N   UNL     1     -37.171  -5.483  -9.378  1.00  0.00    -0.344 N 
HETATM    3  C   UNL     1     -37.282  -5.491  -8.011  1.00  0.00     0.052 A 
HETATM    4  C   UNL     1     -36.628  -6.659  -9.845  1.00  0.00     0.087 A 
HETATM    5  C   UNL     1     -36.863  -6.660  -7.395  1.00  0.00     0.034 A 
HETATM    6  C   UNL     1     -37.787  -4.445  -7.220  1.00  0.00     0.031 A 
HETATM    7  C   UNL     1     -36.912  -6.846  -6.016  1.00  0.00     0.028 A 
HETATM    8  C   UNL     1     -37.659  -4.349 -10.176  1.00  0.00     0.157 C 
HETATM    9  C   UNL     1     -37.411  -5.800  -5.218  1.00  0.00    -0.061 A 
HETATM   10  C   UNL     1     -37.847  -4.604  -5.826  1.00  0.00     0.009 A 
HETATM   11  C   UNL     1     -37.486  -5.945  -3.727  1.00  0.00     0.048 C 
ENDROOT
BRANCH   4  12
HETATM   12  C   UNL     1     -36.275  -7.026 -11.255  1.00  0.00    -0.002 A 
HETATM   13  C   UNL     1     -37.223  -7.082 -12.292  1.00  0.00     0.016 A 
HETATM   14  C   UNL     1     -36.846  -7.407 -13.598  1.00  0.00     0.030 A 
HETATM   15  C   UNL     1     -35.501  -7.681 -13.925  1.00  0.00     0.029 A 
HETATM   16  C   UNL     1     -34.549  -7.601 -12.887  1.00  0.00     0.030 A 
HETATM   17  C   UNL     1     -34.929  -7.271 -11.583  1.00  0.00     0.016 A 
BRANCH  15  18
HETATM   18  N   UNL     1     -35.111  -8.018 -15.274  1.00  0.00    -0.390 N 
HETATM   19  C   UNL     1     -35.025  -6.987 -16.301  1.00  0.00     0.149 C 
HETATM   20  C   UNL     1     -34.796  -9.393 -15.634  1.00  0.00     0.149 C 
ENDBRANCH  15  18
ENDBRANCH   4  12
TORSDOF 2
ENDMDL
MODEL 11
REMARK VINA RESULT:      -6.2      2.600      4.263
REMARK  2 active torsions:
REMARK  status: ('A' for Active; 'I' for Inactive)
REMARK    1  A    between atoms: N_3  and  C_15 
REMARK    2  A    between atoms: C_5  and  C_7 
ROOT
HETATM    1  S   UNL     1     -37.586  -4.834  -9.887  1.00  0.00    -0.069 SA
HETATM    2  N   UNL     1     -36.834  -7.234 -10.192  1.00  0.00    -0.344 N 
HETATM    3  C   UNL     1     -37.032  -6.702 -11.441  1.00  0.00     0.052 A 
HETATM    4  C   UNL     1     -37.075  -6.304  -9.205  1.00  0.00     0.087 A 
HETATM    5  C   UNL     1     -37.450  -5.381 -11.456  1.00  0.00     0.034 A 
HETATM    6  C   UNL     1     -36.864  -7.380 -12.661  1.00  0.00     0.031 A 
HETATM    7  C   UNL     1     -37.708  -4.685 -12.634  1.00  0.00     0.028 A 
HETATM    8  C   UNL     1     -36.478  -8.649 -10.014  1.00  0.00     0.157 C 
HETATM    9  C   UNL     1     -37.535  -5.355 -13.859  1.00  0.00    -0.061 A 
HETATM   10  C   UNL     1     -37.114  -6.702 -13.864  1.00  0.00     0.009 A 
HETATM   11  C   UNL     1     -37.797  -4.655 -15.158  1.00  0.00     0.048 C 
ENDROOT
BRANCH   4  12
HETATM   12  C   UNL     1     -36.907  -6.454  -7.724  1.00  0.00    -0.002 A 
HETATM   13  C   UNL     1     -35.704  -6.873  -7.129  1.00  0.00     0.016 A 
HETATM   14  C   UNL     1     -35.584  -6.979  -5.740  1.00  0.00     0.030 A 
HETATM   15  C   UNL     1     -36.660  -6.659  -4.886  1.00  0.00     0.029 A 
HETATM   16  C   UNL     1     -37.858  -6.218  -5.486  1.00  0.00     0.030 A 
HETATM   17  C   UNL     1     -37.973  -6.110  -6.874  1.00  0.00     0.016 A 
BRANCH  15  18
HETATM   18  N   UNL     1     -36.538  -6.769  -3.451  1.00  0.00    -0.390 N 
HETATM   19  C   UNL     1     -37.515  -6.139  -2.573  1.00  0.00     0.149 C 
HETATM   20  C   UNL     1     -35.434  -7.509  -2.854  1.00  0.00     0.149 C 
ENDBRANCH  15  18
ENDBRANCH   4  12
TORSDOF 2
ENDMDL
MODEL 12
REMARK VINA RESULT:      -6.2      2.153      3.929
REMARK  2 active torsions:
REMARK  status: ('A' for Active; 'I' for Inactive)
REMARK    1  A    between atoms: N_3  and  C_15 
REMARK    2  A    between atoms: C_5  and  C_7 
ROOT
HETATM    1  S   UNL     1     -36.028  -7.644 -17.272  1.00  0.00    -0.069 SA
HETATM    2  N   UNL     1     -37.195  -5.440 -16.820  1.00  0.00    -0.344 N 
HETATM    3  C   UNL     1     -37.236  -5.658 -18.174  1.00  0.00     0.052 A 
HETATM    4  C   UNL     1     -36.574  -6.478 -16.162  1.00  0.00     0.087 A 
HETATM    5  C   UNL     1     -36.636  -6.833 -18.597  1.00  0.00     0.034 A 
HETATM    6  C   UNL     1     -37.807  -4.799 -19.129  1.00  0.00     0.031 A 
HETATM    7  C   UNL     1     -36.577  -7.210 -19.936  1.00  0.00     0.028 A 
HETATM    8  C   UNL     1     -37.710  -4.195 -16.233  1.00  0.00     0.157 C 
HETATM    9  C   UNL     1     -37.152  -6.359 -20.897  1.00  0.00    -0.061 A 
HETATM   10  C   UNL     1     -37.764  -5.155 -20.486  1.00  0.00     0.009 A 
HETATM   11  C   UNL     1     -37.119  -6.715 -22.353  1.00  0.00     0.048 C 
ENDROOT
BRANCH   4  12
HETATM   12  C   UNL     1     -36.387  -6.666 -14.688  1.00  0.00    -0.002 A 
HETATM   13  C   UNL     1     -37.300  -6.185 -13.732  1.00  0.00     0.016 A 
HETATM   14  C   UNL     1     -37.098  -6.403 -12.366  1.00  0.00     0.030 A 
HETATM   15  C   UNL     1     -35.977  -7.119 -11.897  1.00  0.00     0.029 A 
HETATM   16  C   UNL     1     -35.075  -7.619 -12.860  1.00  0.00     0.030 A 
HETATM   17  C   UNL     1     -35.283  -7.404 -14.225  1.00  0.00     0.016 A 
BRANCH  15  18
HETATM   18  N   UNL     1     -35.766  -7.344 -10.486  1.00  0.00    -0.390 N 
HETATM   19  C   UNL     1     -34.669  -8.184 -10.024  1.00  0.00     0.149 C 
HETATM   20  C   UNL     1     -36.647  -6.735  -9.498  1.00  0.00     0.149 C 
ENDBRANCH  15  18
ENDBRANCH   4  12
TORSDOF 2
ENDMDL
MODEL 13
REMARK VINA RESULT:      -6.2      2.044      7.613
REMARK  2 active torsions:
REMARK  status: ('A' for Active; 'I' for Inactive)
REMARK    1  A    between atoms: N_3  and  C_15 
REMARK    2  A    between atoms: C_5  and  C_7 
ROOT
HETATM    1  S   UNL     1     -38.108  -5.216 -10.628  1.00  0.00    -0.069 SA
HETATM    2  N   UNL     1     -36.234  -6.884 -10.986  1.00  0.00    -0.344 N 
HETATM    3  C   UNL     1     -36.383  -6.716  -9.633  1.00  0.00     0.052 A 
HETATM    4  C   UNL     1     -37.147  -6.132 -11.690  1.00  0.00     0.087 A 
HETATM    5  C   UNL     1     -37.378  -5.826  -9.259  1.00  0.00     0.034 A 
HETATM    6  C   UNL     1     -35.618  -7.346  -8.636  1.00  0.00     0.031 A 
HETATM    7  C   UNL     1     -37.662  -5.529  -7.929  1.00  0.00     0.028 A 
HETATM    8  C   UNL     1     -35.162  -7.726 -11.536  1.00  0.00     0.157 C 
HETATM    9  C   UNL     1     -36.904  -6.160  -6.925  1.00  0.00    -0.061 A 
HETATM   10  C   UNL     1     -35.884  -7.066  -7.286  1.00  0.00     0.009 A 
HETATM   11  C   UNL     1     -37.167  -5.878  -5.476  1.00  0.00     0.048 C 
ENDROOT
BRANCH   4  12
HETATM   12  C   UNL     1     -37.369  -6.083 -13.171  1.00  0.00    -0.002 A 
HETATM   13  C   UNL     1     -37.519  -4.880 -13.884  1.00  0.00     0.016 A 
HETATM   14  C   UNL     1     -37.701  -4.880 -15.270  1.00  0.00     0.030 A 
HETATM   15  C   UNL     1     -37.732  -6.084 -16.005  1.00  0.00     0.029 A 
HETATM   16  C   UNL     1     -37.558  -7.288 -15.289  1.00  0.00     0.030 A 
HETATM   17  C   UNL     1     -37.372  -7.284 -13.904  1.00  0.00     0.016 A 
BRANCH  15  18
HETATM   18  N   UNL     1     -37.921  -6.085 -17.436  1.00  0.00    -0.390 N 
HETATM   19  C   UNL     1     -38.408  -7.276 -18.119  1.00  0.00     0.149 C 
HETATM   20  C   UNL     1     -37.629  -4.896 -18.225  1.00  0.00     0.149 C 
ENDBRANCH  15  18
ENDBRANCH   4  12
TORSDOF 2
ENDMDL
MODEL 14
REMARK VINA RESULT:      -6.1      2.661      8.641
REMARK  2 active torsions:
REMARK  status: ('A' for Active; 'I' for Inactive)
REMARK    1  A    between atoms: N_3  and  C_15 
REMARK    2  A    between atoms: C_5  and  C_7 
ROOT
HETATM    1  S   UNL     1     -37.126  -4.783 -15.420  1.00  0.00    -0.069 SA
HETATM    2  N   UNL     1     -37.467  -7.290 -15.278  1.00  0.00    -0.344 N 
HETATM    3  C   UNL     1     -37.628  -6.780 -14.015  1.00  0.00     0.052 A 
HETATM    4  C   UNL     1     -37.207  -6.295 -16.193  1.00  0.00     0.087 A 
HETATM    5  C   UNL     1     -37.474  -5.406 -13.913  1.00  0.00     0.034 A 
HETATM    6  C   UNL     1     -37.913  -7.524 -12.857  1.00  0.00     0.031 A 
HETATM    7  C   UNL     1     -37.595  -4.721 -12.707  1.00  0.00     0.028 A 
HETATM    8  C   UNL     1     -37.512  -8.738 -15.526  1.00  0.00     0.157 C 
HETATM    9  C   UNL     1     -37.885  -5.459 -11.544  1.00  0.00    -0.061 A 
HETATM   10  C   UNL     1     -38.042  -6.859 -11.627  1.00  0.00     0.009 A 
HETATM   11  C   UNL     1     -38.027  -4.773 -10.219  1.00  0.00     0.048 C 
ENDROOT
BRANCH   4  12
HETATM   12  C   UNL     1     -37.040  -6.415 -17.677  1.00  0.00    -0.002 A 
HETATM   13  C   UNL     1     -37.904  -5.796 -18.598  1.00  0.00     0.016 A 
HETATM   14  C   UNL     1     -37.698  -5.917 -19.975  1.00  0.00     0.030 A 
HETATM   15  C   UNL     1     -36.612  -6.655 -20.491  1.00  0.00     0.029 A 
HETATM   16  C   UNL     1     -35.735  -7.256 -19.564  1.00  0.00     0.030 A 
HETATM   17  C   UNL     1     -35.941  -7.129 -18.188  1.00  0.00     0.016 A 
BRANCH  15  18
HETATM   18  N   UNL     1     -36.399  -6.781 -21.914  1.00  0.00    -0.390 N 
HETATM   19  C   UNL     1     -35.237  -7.492 -22.430  1.00  0.00     0.149 C 
HETATM   20  C   UNL     1     -37.341  -6.199 -22.860  1.00  0.00     0.149 C 
ENDBRANCH  15  18
ENDBRANCH   4  12
TORSDOF 2
ENDMDL
MODEL 15
REMARK VINA RESULT:      -6.1      1.987      2.994
REMARK  2 active torsions:
REMARK  status: ('A' for Active; 'I' for Inactive)
REMARK    1  A    between atoms: N_3  and  C_15 
REMARK    2  A    between atoms: C_5  and  C_7 
ROOT
HETATM    1  S   UNL     1     -35.962  -7.623 -12.458  1.00  0.00    -0.069 SA
HETATM    2  N   UNL     1     -37.192  -5.455 -12.005  1.00  0.00    -0.344 N 
HETATM    3  C   UNL     1     -37.208  -5.663 -13.361  1.00  0.00     0.052 A 
HETATM    4  C   UNL     1     -36.553  -6.482 -11.346  1.00  0.00     0.087 A 
HETATM    5  C   UNL     1     -36.571  -6.819 -13.785  1.00  0.00     0.034 A 
HETATM    6  C   UNL     1     -37.789  -4.812 -14.317  1.00  0.00     0.031 A 
HETATM    7  C   UNL     1     -36.484  -7.183 -15.125  1.00  0.00     0.028 A 
HETATM    8  C   UNL     1     -37.748  -4.229 -11.415  1.00  0.00     0.157 C 
HETATM    9  C   UNL     1     -37.068  -6.339 -16.088  1.00  0.00    -0.061 A 
HETATM   10  C   UNL     1     -37.718  -5.156 -15.676  1.00  0.00     0.009 A 
HETATM   11  C   UNL     1     -37.005  -6.682 -17.546  1.00  0.00     0.048 C 
ENDROOT
BRANCH   4  12
HETATM   12  C   UNL     1     -36.382  -6.677  -9.871  1.00  0.00    -0.002 A 
HETATM   13  C   UNL     1     -37.302  -6.194  -8.923  1.00  0.00     0.016 A 
HETATM   14  C   UNL     1     -37.114  -6.418  -7.556  1.00  0.00     0.030 A 
HETATM   15  C   UNL     1     -36.002  -7.143  -7.078  1.00  0.00     0.029 A 
HETATM   16  C   UNL     1     -35.093  -7.645  -8.034  1.00  0.00     0.030 A 
HETATM   17  C   UNL     1     -35.286  -7.423  -9.400  1.00  0.00     0.016 A 
BRANCH  15  18
HETATM   18  N   UNL     1     -35.807  -7.374  -5.666  1.00  0.00    -0.390 N 
HETATM   19  C   UNL     1     -34.781  -8.298  -5.201  1.00  0.00     0.149 C 
HETATM   20  C   UNL     1     -36.632  -6.690  -4.681  1.00  0.00     0.149 C 
ENDBRANCH  15  18
ENDBRANCH   4  12
TORSDOF 2
ENDMDL
MODEL 16
REMARK VINA RESULT:      -6.1      2.931      8.259
REMARK  2 active torsions:
REMARK  status: ('A' for Active; 'I' for Inactive)
REMARK    1  A    between atoms: N_3  and  C_15 
REMARK    2  A    between atoms: C_5  and  C_7 
ROOT
HETATM    1  S   UNL     1     -37.591  -5.880  -7.671  1.00  0.00    -0.069 SA
HETATM    2  N   UNL     1     -35.587  -7.275  -8.353  1.00  0.00    -0.344 N 
HETATM    3  C   UNL     1     -35.647  -7.281  -6.982  1.00  0.00     0.052 A 
HETATM    4  C   UNL     1     -36.626  -6.554  -8.898  1.00  0.00     0.087 A 
HETATM    5  C   UNL     1     -36.697  -6.558  -6.437  1.00  0.00     0.034 A 
HETATM    6  C   UNL     1     -34.745  -7.931  -6.122  1.00  0.00     0.031 A 
HETATM    7  C   UNL     1     -36.905  -6.449  -5.065  1.00  0.00     0.028 A 
HETATM    8  C   UNL     1     -34.480  -7.922  -9.070  1.00  0.00     0.157 C 
HETATM    9  C   UNL     1     -36.010  -7.102  -4.198  1.00  0.00    -0.061 A 
HETATM   10  C   UNL     1     -34.933  -7.840  -4.733  1.00  0.00     0.009 A 
HETATM   11  C   UNL     1     -36.187  -7.019  -2.712  1.00  0.00     0.048 C 
ENDROOT
BRANCH   4  12
HETATM   12  C   UNL     1     -36.966  -6.361 -10.344  1.00  0.00    -0.002 A 
HETATM   13  C   UNL     1     -37.162  -7.432 -11.234  1.00  0.00     0.016 A 
HETATM   14  C   UNL     1     -37.500  -7.206 -12.572  1.00  0.00     0.030 A 
HETATM   15  C   UNL     1     -37.667  -5.899 -13.075  1.00  0.00     0.029 A 
HETATM   16  C   UNL     1     -37.492  -4.828 -12.173  1.00  0.00     0.030 A 
HETATM   17  C   UNL     1     -37.158  -5.057 -10.836  1.00  0.00     0.016 A 
BRANCH  15  18
HETATM   18  N   UNL     1     -38.015  -5.665 -14.457  1.00  0.00    -0.390 N 
HETATM   19  C   UNL     1     -37.472  -4.519 -15.175  1.00  0.00     0.149 C 
HETATM   20  C   UNL     1     -38.917  -6.568 -15.158  1.00  0.00     0.149 C 
ENDBRANCH  15  18
ENDBRANCH   4  12
TORSDOF 2
ENDMDL
MODEL 17
REMARK VINA RESULT:      -6.0      1.730      7.905
REMARK  2 active torsions:
REMARK  status: ('A' for Active; 'I' for Inactive)
REMARK    1  A    between atoms: N_3  and  C_15 
REMARK    2  A    between atoms: C_5  and  C_7 
ROOT
HETATM    1  S   UNL     1     -36.467  -7.800 -10.298  1.00  0.00    -0.069 SA
HETATM    2  N   UNL     1     -37.297  -5.433 -10.657  1.00  0.00    -0.344 N 
HETATM    3  C   UNL     1     -37.260  -5.657  -9.304  1.00  0.00     0.052 A 
HETATM    4  C   UNL     1     -36.854  -6.531 -11.360  1.00  0.00     0.087 A 
HETATM    5  C   UNL     1     -36.824  -6.917  -8.929  1.00  0.00     0.034 A 
HETATM    6  C   UNL     1     -37.635  -4.738  -8.308  1.00  0.00     0.031 A 
HETATM    7  C   UNL     1     -36.732  -7.319  -7.599  1.00  0.00     0.028 A 
HETATM    8  C   UNL     1     -37.823  -4.176 -11.208  1.00  0.00     0.157 C 
HETATM    9  C   UNL     1     -37.099  -6.403  -6.596  1.00  0.00    -0.061 A 
HETATM   10  C   UNL     1     -37.550  -5.116  -6.958  1.00  0.00     0.009 A 
HETATM   11  C   UNL     1     -37.020  -6.782  -5.148  1.00  0.00     0.048 C 
ENDROOT
BRANCH   4  12
HETATM   12  C   UNL     1     -36.670  -6.676 -12.840  1.00  0.00    -0.002 A 
HETATM   13  C   UNL     1     -37.541  -6.097 -13.780  1.00  0.00     0.016 A 
HETATM   14  C   UNL     1     -37.318  -6.239 -15.153  1.00  0.00     0.030 A 
HETATM   15  C   UNL     1     -36.209  -6.960 -15.645  1.00  0.00     0.029 A 
HETATM   16  C   UNL     1     -35.326  -7.520 -14.698  1.00  0.00     0.030 A 
HETATM   17  C   UNL     1     -35.549  -7.372 -13.327  1.00  0.00     0.016 A 
BRANCH  15  18
HETATM   18  N   UNL     1     -35.979  -7.108 -17.063  1.00  0.00    -0.390 N 
HETATM   19  C   UNL     1     -36.993  -6.697 -18.025  1.00  0.00     0.149 C 
HETATM   20  C   UNL     1     -34.731  -7.672 -17.557  1.00  0.00     0.149 C 
ENDBRANCH  15  18
ENDBRANCH   4  12
TORSDOF 2
ENDMDL
MODEL 18
REMARK VINA RESULT:      -6.0      1.557      2.628
REMARK  2 active torsions:
REMARK  status: ('A' for Active; 'I' for Inactive)
REMARK    1  A    between atoms: N_3  and  C_15 
REMARK    2  A    between atoms: C_5  and  C_7 
ROOT
HETATM    1  S   UNL     1     -35.442  -7.709 -15.431  1.00  0.00    -0.069 SA
HETATM    2  N   UNL     1     -37.182  -5.866 -15.428  1.00  0.00    -0.344 N 
HETATM    3  C   UNL     1     -36.923  -6.188 -16.736  1.00  0.00     0.052 A 
HETATM    4  C   UNL     1     -36.451  -6.651 -14.564  1.00  0.00     0.087 A 
HETATM    5  C   UNL     1     -35.984  -7.190 -16.920  1.00  0.00     0.034 A 
HETATM    6  C   UNL     1     -37.509  -5.585 -17.863  1.00  0.00     0.031 A 
HETATM    7  C   UNL     1     -35.594  -7.636 -18.179  1.00  0.00     0.028 A 
HETATM    8  C   UNL     1     -38.087  -4.763 -15.079  1.00  0.00     0.157 C 
HETATM    9  C   UNL     1     -36.180  -7.042 -19.312  1.00  0.00    -0.061 A 
HETATM   10  C   UNL     1     -37.136  -6.017 -19.145  1.00  0.00     0.009 A 
HETATM   11  C   UNL     1     -35.799  -7.484 -20.692  1.00  0.00     0.048 C 
ENDROOT
BRANCH   4  12
HETATM   12  C   UNL     1     -36.491  -6.672 -13.066  1.00  0.00    -0.002 A 
HETATM   13  C   UNL     1     -37.635  -6.326 -12.326  1.00  0.00     0.016 A 
HETATM   14  C   UNL     1     -37.636  -6.381 -10.929  1.00  0.00     0.030 A 
HETATM   15  C   UNL     1     -36.493  -6.795 -10.212  1.00  0.00     0.029 A 
HETATM   16  C   UNL     1     -35.354  -7.163 -10.960  1.00  0.00     0.030 A 
HETATM   17  C   UNL     1     -35.359  -7.111 -12.356  1.00  0.00     0.016 A 
BRANCH  15  18
HETATM   18  N   UNL     1     -36.492  -6.852  -8.769  1.00  0.00    -0.390 N 
HETATM   19  C   UNL     1     -35.415  -7.524  -8.054  1.00  0.00     0.149 C 
HETATM   20  C   UNL     1     -37.567  -6.239  -8.001  1.00  0.00     0.149 C 
ENDBRANCH  15  18
ENDBRANCH   4  12
TORSDOF 2
ENDMDL
MODEL 19
REMARK VINA RESULT:      -6.0      4.171     10.418
REMARK  2 active torsions:
REMARK  status: ('A' for Active; 'I' for Inactive)
REMARK    1  A    between atoms: N_3  and  C_15 
REMARK    2  A    between atoms: C_5  and  C_7 
ROOT
HETATM    1  S   UNL     1     -36.351  -7.838 -17.820  1.00  0.00    -0.069 SA
HETATM    2  N   UNL     1     -37.190  -5.636 -18.752  1.00  0.00    -0.344 N 
HETATM    3  C   UNL     1     -37.307  -5.577 -17.386  1.00  0.00     0.052 A 
HETATM    4  C   UNL     1     -36.643  -6.832 -19.159  1.00  0.00     0.087 A 
HETATM    5  C   UNL     1     -36.887  -6.713 -16.712  1.00  0.00     0.034 A 
HETATM    6  C   UNL     1     -37.817  -4.494 -16.650  1.00  0.00     0.031 A 
HETATM    7  C   UNL     1     -36.941  -6.830 -15.326  1.00  0.00     0.028 A 
HETATM    8  C   UNL     1     -37.679  -4.544 -19.606  1.00  0.00     0.157 C 
HETATM    9  C   UNL     1     -37.445  -5.748 -14.582  1.00  0.00    -0.061 A 
HETATM   10  C   UNL     1     -37.881  -4.584 -15.250  1.00  0.00     0.009 A 
HETATM   11  C   UNL     1     -37.526  -5.819 -13.087  1.00  0.00     0.048 C 
ENDROOT
BRANCH   4  12
HETATM   12  C   UNL     1     -36.283  -7.266 -20.547  1.00  0.00    -0.002 A 
HETATM   13  C   UNL     1     -37.231  -7.747 -21.468  1.00  0.00     0.016 A 
HETATM   14  C   UNL     1     -36.855  -8.122 -22.762  1.00  0.00     0.030 A 
HETATM   15  C   UNL     1     -35.516  -8.021 -23.193  1.00  0.00     0.029 A 
HETATM   16  C   UNL     1     -34.572  -7.517 -22.273  1.00  0.00     0.030 A 
HETATM   17  C   UNL     1     -34.952  -7.140 -20.983  1.00  0.00     0.016 A 
BRANCH  15  18
HETATM   18  N   UNL     1     -35.127  -8.408 -24.529  1.00  0.00    -0.390 N 
HETATM   19  C   UNL     1     -34.548  -9.721 -24.782  1.00  0.00     0.149 C 
HETATM   20  C   UNL     1     -35.303  -7.494 -25.648  1.00  0.00     0.149 C 
ENDBRANCH  15  18
ENDBRANCH   4  12
TORSDOF 2
ENDMDL
MODEL 20
REMARK VINA RESULT:      -5.8     31.072     32.201
REMARK  2 active torsions:
REMARK  status: ('A' for Active; 'I' for Inactive)
REMARK    1  A    between atoms: N_3  and  C_15 
REMARK    2  A    between atoms: C_5  and  C_7 
ROOT
HETATM    1  S   UNL     1     -52.566  19.717 -17.763  1.00  0.00    -0.069 SA
HETATM    2  N   UNL     1     -52.785  22.241 -17.732  1.00  0.00    -0.344 N 
HETATM    3  C   UNL     1     -52.724  21.848 -19.046  1.00  0.00     0.052 A 
HETATM    4  C   UNL     1     -52.738  21.160 -16.882  1.00  0.00     0.087 A 
HETATM    5  C   UNL     1     -52.602  20.482 -19.244  1.00  0.00     0.034 A 
HETATM    6  C   UNL     1     -52.759  22.702 -20.162  1.00  0.00     0.031 A 
HETATM    7  C   UNL     1     -52.517  19.909 -20.509  1.00  0.00     0.028 A 
HETATM    8  C   UNL     1     -52.825  23.664 -17.364  1.00  0.00     0.157 C 
HETATM    9  C   UNL     1     -52.557  20.755 -21.632  1.00  0.00    -0.061 A 
HETATM   10  C   UNL     1     -52.678  22.150 -21.451  1.00  0.00     0.009 A 
HETATM   11  C   UNL     1     -52.471  20.192 -23.019  1.00  0.00     0.048 C 
ENDROOT
BRANCH   4  12
HETATM   12  C   UNL     1     -52.849  21.146 -15.387  1.00  0.00    -0.002 A 
HETATM   13  C   UNL     1     -53.695  22.014 -14.675  1.00  0.00     0.016 A 
HETATM   14  C   UNL     1     -53.785  21.952 -13.281  1.00  0.00     0.030 A 
HETATM   15  C   UNL     1     -53.038  21.012 -12.540  1.00  0.00     0.029 A 
HETATM   16  C   UNL     1     -52.207  20.128 -13.261  1.00  0.00     0.030 A 
HETATM   17  C   UNL     1     -52.123  20.190 -14.654  1.00  0.00     0.016 A 
BRANCH  15  18
HETATM   18  N   UNL     1     -53.129  20.948 -11.100  1.00  0.00    -0.390 N 
HETATM   19  C   UNL     1     -54.105  21.757 -10.382  1.00  0.00     0.149 C 
HETATM   20  C   UNL     1     -52.246  20.074 -10.339  1.00  0.00     0.149 C 
ENDBRANCH  15  18
ENDBRANCH   4  12
TORSDOF 2
ENDMDL
