MODEL 1
REMARK VINA RESULT:      -4.9      0.000      0.000
REMARK  15 active torsions:
REMARK  status: ('A' for Active; 'I' for Inactive)
REMARK    1  A    between atoms: O_1  and  C_23 
REMARK    2  A    between atoms: C_3  and  C_7 
REMARK    3  A    between atoms: C_3  and  C_8 
REMARK    4  A    between atoms: C_4  and  C_10 
REMARK    5  A    between atoms: C_4  and  C_11 
REMARK    6  A    between atoms: C_5  and  C_12 
REMARK    7  A    between atoms: C_5  and  C_13 
REMARK    8  A    between atoms: C_6  and  C_15 
REMARK    9  A    between atoms: C_6  and  C_16 
REMARK   10  A    between atoms: C_7  and  C_23 
REMARK   11  A    between atoms: C_9  and  C_17 
REMARK   12  A    between atoms: C_9  and  C_18 
REMARK   13  A    between atoms: C_14  and  C_19 
REMARK   14  A    between atoms: C_14  and  C_20 
REMARK   15  A    between atoms: C_21  and  C_22 
ROOT
HETATM    1  O   UNL     1      32.643 -20.244 -14.220  1.00  0.00    -0.776 OA
HETATM    2  H   UNL     1      33.453 -20.293 -14.747  1.00  0.00     0.167 HD
ENDROOT
BRANCH   1   3
HETATM    3  C   UNL     1      31.435 -20.518 -14.758  1.00  0.00     0.139 C 
HETATM    4  O   UNL     1      31.349 -20.853 -15.931  1.00  0.00    -0.650 OA
BRANCH   3   5
HETATM    5  C   UNL     1      30.200 -20.413 -13.909  1.00  0.00     0.113 C 
BRANCH   5   6
HETATM    6  C   UNL     1      30.241 -19.154 -13.037  1.00  0.00     0.037 C 
BRANCH   6   7
HETATM    7  C   UNL     1      29.965 -17.922 -13.866  1.00  0.00    -0.030 C 
HETATM    8  C   UNL     1      30.761 -16.840 -14.003  1.00  0.00    -0.027 C 
BRANCH   8   9
HETATM    9  C   UNL     1      32.112 -16.603 -13.363  1.00  0.00     0.053 C 
BRANCH   9  10
HETATM   10  C   UNL     1      32.042 -15.478 -12.362  1.00  0.00    -0.027 C 
HETATM   11  C   UNL     1      32.324 -14.186 -12.611  1.00  0.00    -0.027 C 
BRANCH  11  12
HETATM   12  C   UNL     1      32.706 -13.618 -13.953  1.00  0.00     0.053 C 
BRANCH  12  13
HETATM   13  C   UNL     1      32.421 -12.138 -14.011  1.00  0.00    -0.027 C 
HETATM   14  C   UNL     1      31.603 -11.512 -14.877  1.00  0.00    -0.027 C 
BRANCH  14  15
HETATM   15  C   UNL     1      30.838 -12.158 -16.001  1.00  0.00     0.053 C 
BRANCH  15  16
HETATM   16  C   UNL     1      29.360 -11.936 -15.767  1.00  0.00    -0.027 C 
HETATM   17  C   UNL     1      28.536 -12.628 -14.954  1.00  0.00    -0.027 C 
BRANCH  17  18
HETATM   18  C   UNL     1      28.900 -13.786 -14.062  1.00  0.00     0.053 C 
BRANCH  18  19
HETATM   19  C   UNL     1      28.113 -13.734 -12.773  1.00  0.00    -0.027 C 
HETATM   20  C   UNL     1      28.441 -13.087 -11.637  1.00  0.00    -0.027 C 
BRANCH  20  21
HETATM   21  C   UNL     1      29.649 -12.213 -11.403  1.00  0.00     0.053 C 
BRANCH  21  22
HETATM   22  C   UNL     1      29.977 -12.131  -9.930  1.00  0.00    -0.027 C 
HETATM   23  C   UNL     1      31.192 -11.958  -9.374  1.00  0.00    -0.031 C 
BRANCH  23  24
HETATM   24  C   UNL     1      32.502 -11.826 -10.105  1.00  0.00     0.022 C 
HETATM   25  C   UNL     1      32.794 -10.391 -10.524  1.00  0.00     0.009 C 
ENDBRANCH  23  24
ENDBRANCH  21  22
ENDBRANCH  20  21
ENDBRANCH  18  19
ENDBRANCH  17  18
ENDBRANCH  15  16
ENDBRANCH  14  15
ENDBRANCH  12  13
ENDBRANCH  11  12
ENDBRANCH   9  10
ENDBRANCH   8   9
ENDBRANCH   6   7
ENDBRANCH   5   6
ENDBRANCH   3   5
ENDBRANCH   1   3
TORSDOF 15
ENDMDL
MODEL 2
REMARK VINA RESULT:      -4.7      6.552      8.971
REMARK  15 active torsions:
REMARK  status: ('A' for Active; 'I' for Inactive)
REMARK    1  A    between atoms: O_1  and  C_23 
REMARK    2  A    between atoms: C_3  and  C_7 
REMARK    3  A    between atoms: C_3  and  C_8 
REMARK    4  A    between atoms: C_4  and  C_10 
REMARK    5  A    between atoms: C_4  and  C_11 
REMARK    6  A    between atoms: C_5  and  C_12 
REMARK    7  A    between atoms: C_5  and  C_13 
REMARK    8  A    between atoms: C_6  and  C_15 
REMARK    9  A    between atoms: C_6  and  C_16 
REMARK   10  A    between atoms: C_7  and  C_23 
REMARK   11  A    between atoms: C_9  and  C_17 
REMARK   12  A    between atoms: C_9  and  C_18 
REMARK   13  A    between atoms: C_14  and  C_19 
REMARK   14  A    between atoms: C_14  and  C_20 
REMARK   15  A    between atoms: C_21  and  C_22 
ROOT
HETATM    1  O   UNL     1      32.632 -20.214  -4.399  1.00  0.00    -0.776 OA
HETATM    2  H   UNL     1      32.794 -19.416  -3.878  1.00  0.00     0.167 HD
ENDROOT
BRANCH   1   3
HETATM    3  C   UNL     1      31.423 -20.464  -4.946  1.00  0.00     0.139 C 
HETATM    4  O   UNL     1      31.342 -20.826  -6.111  1.00  0.00    -0.650 OA
BRANCH   3   5
HETATM    5  C   UNL     1      30.181 -20.300  -4.118  1.00  0.00     0.113 C 
BRANCH   5   6
HETATM    6  C   UNL     1      29.878 -18.817  -3.874  1.00  0.00     0.037 C 
BRANCH   6   7
HETATM    7  C   UNL     1      30.274 -18.417  -2.472  1.00  0.00    -0.030 C 
HETATM    8  C   UNL     1      30.791 -17.233  -2.081  1.00  0.00    -0.027 C 
BRANCH   8   9
HETATM    9  C   UNL     1      31.097 -16.030  -2.947  1.00  0.00     0.053 C 
BRANCH   9  10
HETATM   10  C   UNL     1      32.451 -16.167  -3.596  1.00  0.00    -0.027 C 
HETATM   11  C   UNL     1      32.920 -15.406  -4.602  1.00  0.00    -0.027 C 
BRANCH  11  12
HETATM   12  C   UNL     1      32.200 -14.239  -5.225  1.00  0.00     0.053 C 
BRANCH  12  13
HETATM   13  C   UNL     1      32.295 -13.017  -4.346  1.00  0.00    -0.027 C 
HETATM   14  C   UNL     1      31.343 -12.083  -4.164  1.00  0.00    -0.027 C 
BRANCH  14  15
HETATM   15  C   UNL     1      29.999 -12.042  -4.841  1.00  0.00     0.053 C 
BRANCH  15  16
HETATM   16  C   UNL     1      28.998 -12.768  -3.969  1.00  0.00    -0.027 C 
HETATM   17  C   UNL     1      28.415 -13.962  -4.195  1.00  0.00    -0.027 C 
BRANCH  17  18
HETATM   18  C   UNL     1      28.638 -14.875  -5.372  1.00  0.00     0.053 C 
BRANCH  18  19
HETATM   19  C   UNL     1      27.852 -14.400  -6.572  1.00  0.00    -0.027 C 
HETATM   20  C   UNL     1      28.337 -13.882  -7.718  1.00  0.00    -0.027 C 
BRANCH  20  21
HETATM   21  C   UNL     1      29.788 -13.705  -8.094  1.00  0.00     0.053 C 
BRANCH  21  22
HETATM   22  C   UNL     1      30.185 -14.678  -9.179  1.00  0.00    -0.027 C 
HETATM   23  C   UNL     1      30.754 -15.889  -9.019  1.00  0.00    -0.031 C 
BRANCH  23  24
HETATM   24  C   UNL     1      31.139 -16.534  -7.713  1.00  0.00     0.022 C 
HETATM   25  C   UNL     1      30.222 -17.692  -7.342  1.00  0.00     0.009 C 
ENDBRANCH  23  24
ENDBRANCH  21  22
ENDBRANCH  20  21
ENDBRANCH  18  19
ENDBRANCH  17  18
ENDBRANCH  15  16
ENDBRANCH  14  15
ENDBRANCH  12  13
ENDBRANCH  11  12
ENDBRANCH   9  10
ENDBRANCH   8   9
ENDBRANCH   6   7
ENDBRANCH   5   6
ENDBRANCH   3   5
ENDBRANCH   1   3
TORSDOF 15
ENDMDL
MODEL 3
REMARK VINA RESULT:      -4.7     23.946     25.871
REMARK  15 active torsions:
REMARK  status: ('A' for Active; 'I' for Inactive)
REMARK    1  A    between atoms: O_1  and  C_23 
REMARK    2  A    between atoms: C_3  and  C_7 
REMARK    3  A    between atoms: C_3  and  C_8 
REMARK    4  A    between atoms: C_4  and  C_10 
REMARK    5  A    between atoms: C_4  and  C_11 
REMARK    6  A    between atoms: C_5  and  C_12 
REMARK    7  A    between atoms: C_5  and  C_13 
REMARK    8  A    between atoms: C_6  and  C_15 
REMARK    9  A    between atoms: C_6  and  C_16 
REMARK   10  A    between atoms: C_7  and  C_23 
REMARK   11  A    between atoms: C_9  and  C_17 
REMARK   12  A    between atoms: C_9  and  C_18 
REMARK   13  A    between atoms: C_14  and  C_19 
REMARK   14  A    between atoms: C_14  and  C_20 
REMARK   15  A    between atoms: C_21  and  C_22 
ROOT
HETATM    1  O   UNL     1      37.931   9.035 -18.411  1.00  0.00    -0.776 OA
HETATM    2  H   UNL     1      37.910   8.173 -18.850  1.00  0.00     0.167 HD
ENDROOT
BRANCH   1   3
HETATM    3  C   UNL     1      38.980   9.413 -17.651  1.00  0.00     0.139 C 
HETATM    4  O   UNL     1      39.128  10.589 -17.351  1.00  0.00    -0.650 OA
BRANCH   3   5
HETATM    5  C   UNL     1      39.963   8.383 -17.171  1.00  0.00     0.113 C 
BRANCH   5   6
HETATM    6  C   UNL     1      39.239   7.138 -16.647  1.00  0.00     0.037 C 
BRANCH   6   7
HETATM    7  C   UNL     1      38.492   7.453 -15.373  1.00  0.00    -0.030 C 
HETATM    8  C   UNL     1      39.026   7.796 -14.181  1.00  0.00    -0.027 C 
BRANCH   8   9
HETATM    9  C   UNL     1      40.493   7.945 -13.838  1.00  0.00     0.053 C 
BRANCH   9  10
HETATM   10  C   UNL     1      40.681   8.901 -12.687  1.00  0.00    -0.027 C 
HETATM   11  C   UNL     1      40.565  10.239 -12.752  1.00  0.00    -0.027 C 
BRANCH  11  12
HETATM   12  C   UNL     1      40.170  11.025 -13.975  1.00  0.00     0.053 C 
BRANCH  12  13
HETATM   13  C   UNL     1      39.280  12.185 -13.605  1.00  0.00    -0.027 C 
HETATM   14  C   UNL     1      37.962  12.133 -13.337  1.00  0.00    -0.027 C 
BRANCH  14  15
HETATM   15  C   UNL     1      37.092  10.906 -13.400  1.00  0.00     0.053 C 
BRANCH  15  16
HETATM   16  C   UNL     1      36.144  10.928 -12.222  1.00  0.00    -0.027 C 
HETATM   17  C   UNL     1      36.353  10.447 -10.980  1.00  0.00    -0.027 C 
BRANCH  17  18
HETATM   18  C   UNL     1      37.601   9.783 -10.460  1.00  0.00     0.053 C 
BRANCH  18  19
HETATM   19  C   UNL     1      37.603   8.311 -10.799  1.00  0.00    -0.027 C 
HETATM   20  C   UNL     1      38.304   7.330 -10.194  1.00  0.00    -0.027 C 
BRANCH  20  21
HETATM   21  C   UNL     1      39.212   7.466  -8.997  1.00  0.00     0.053 C 
BRANCH  21  22
HETATM   22  C   UNL     1      40.616   7.826  -9.425  1.00  0.00    -0.027 C 
HETATM   23  C   UNL     1      41.329   8.907  -9.054  1.00  0.00    -0.031 C 
BRANCH  23  24
HETATM   24  C   UNL     1      40.872  10.013  -8.139  1.00  0.00     0.022 C 
HETATM   25  C   UNL     1      40.403  11.245  -8.902  1.00  0.00     0.009 C 
ENDBRANCH  23  24
ENDBRANCH  21  22
ENDBRANCH  20  21
ENDBRANCH  18  19
ENDBRANCH  17  18
ENDBRANCH  15  16
ENDBRANCH  14  15
ENDBRANCH  12  13
ENDBRANCH  11  12
ENDBRANCH   9  10
ENDBRANCH   8   9
ENDBRANCH   6   7
ENDBRANCH   5   6
ENDBRANCH   3   5
ENDBRANCH   1   3
TORSDOF 15
ENDMDL
MODEL 4
REMARK VINA RESULT:      -4.7      4.678      7.213
REMARK  15 active torsions:
REMARK  status: ('A' for Active; 'I' for Inactive)
REMARK    1  A    between atoms: O_1  and  C_23 
REMARK    2  A    between atoms: C_3  and  C_7 
REMARK    3  A    between atoms: C_3  and  C_8 
REMARK    4  A    between atoms: C_4  and  C_10 
REMARK    5  A    between atoms: C_4  and  C_11 
REMARK    6  A    between atoms: C_5  and  C_12 
REMARK    7  A    between atoms: C_5  and  C_13 
REMARK    8  A    between atoms: C_6  and  C_15 
REMARK    9  A    between atoms: C_6  and  C_16 
REMARK   10  A    between atoms: C_7  and  C_23 
REMARK   11  A    between atoms: C_9  and  C_17 
REMARK   12  A    between atoms: C_9  and  C_18 
REMARK   13  A    between atoms: C_14  and  C_19 
REMARK   14  A    between atoms: C_14  and  C_20 
REMARK   15  A    between atoms: C_21  and  C_22 
ROOT
HETATM    1  O   UNL     1      32.459 -20.594 -14.761  1.00  0.00    -0.776 OA
HETATM    2  H   UNL     1      33.005 -19.872 -14.419  1.00  0.00     0.167 HD
ENDROOT
BRANCH   1   3
HETATM    3  C   UNL     1      31.205 -20.375 -15.211  1.00  0.00     0.139 C 
HETATM    4  O   UNL     1      30.792 -20.977 -16.192  1.00  0.00    -0.650 OA
BRANCH   3   5
HETATM    5  C   UNL     1      30.317 -19.393 -14.500  1.00  0.00     0.113 C 
BRANCH   5   6
HETATM    6  C   UNL     1      30.340 -19.632 -12.986  1.00  0.00     0.037 C 
BRANCH   6   7
HETATM    7  C   UNL     1      30.100 -18.341 -12.240  1.00  0.00    -0.030 C 
HETATM    8  C   UNL     1      30.463 -18.057 -10.971  1.00  0.00    -0.027 C 
BRANCH   8   9
HETATM    9  C   UNL     1      31.193 -18.958  -9.997  1.00  0.00     0.053 C 
BRANCH   9  10
HETATM   10  C   UNL     1      30.264 -20.003  -9.434  1.00  0.00    -0.027 C 
HETATM   11  C   UNL     1      30.174 -20.359  -8.139  1.00  0.00    -0.027 C 
BRANCH  11  12
HETATM   12  C   UNL     1      30.946 -19.735  -7.006  1.00  0.00     0.053 C 
BRANCH  12  13
HETATM   13  C   UNL     1      30.900 -20.609  -5.778  1.00  0.00    -0.027 C 
HETATM   14  C   UNL     1      31.073 -20.213  -4.503  1.00  0.00    -0.027 C 
BRANCH  14  15
HETATM   15  C   UNL     1      31.398 -18.816  -4.045  1.00  0.00     0.053 C 
BRANCH  15  16
HETATM   16  C   UNL     1      30.107 -18.039  -3.915  1.00  0.00    -0.027 C 
HETATM   17  C   UNL     1      29.793 -16.853  -4.474  1.00  0.00    -0.027 C 
BRANCH  17  18
HETATM   18  C   UNL     1      30.656 -16.020  -5.384  1.00  0.00     0.053 C 
BRANCH  18  19
HETATM   19  C   UNL     1      30.402 -16.374  -6.831  1.00  0.00    -0.027 C 
HETATM   20  C   UNL     1      29.584 -15.745  -7.699  1.00  0.00    -0.027 C 
BRANCH  20  21
HETATM   21  C   UNL     1      28.769 -14.501  -7.443  1.00  0.00     0.053 C 
BRANCH  21  22
HETATM   22  C   UNL     1      29.634 -13.265  -7.527  1.00  0.00    -0.027 C 
HETATM   23  C   UNL     1      30.104 -12.674  -8.643  1.00  0.00    -0.031 C 
BRANCH  23  24
HETATM   24  C   UNL     1      29.885 -13.132 -10.061  1.00  0.00     0.022 C 
HETATM   25  C   UNL     1      31.043 -13.969 -10.589  1.00  0.00     0.009 C 
ENDBRANCH  23  24
ENDBRANCH  21  22
ENDBRANCH  20  21
ENDBRANCH  18  19
ENDBRANCH  17  18
ENDBRANCH  15  16
ENDBRANCH  14  15
ENDBRANCH  12  13
ENDBRANCH  11  12
ENDBRANCH   9  10
ENDBRANCH   8   9
ENDBRANCH   6   7
ENDBRANCH   5   6
ENDBRANCH   3   5
ENDBRANCH   1   3
TORSDOF 15
ENDMDL
MODEL 5
REMARK VINA RESULT:      -4.7     24.109     26.280
REMARK  15 active torsions:
REMARK  status: ('A' for Active; 'I' for Inactive)
REMARK    1  A    between atoms: O_1  and  C_23 
REMARK    2  A    between atoms: C_3  and  C_7 
REMARK    3  A    between atoms: C_3  and  C_8 
REMARK    4  A    between atoms: C_4  and  C_10 
REMARK    5  A    between atoms: C_4  and  C_11 
REMARK    6  A    between atoms: C_5  and  C_12 
REMARK    7  A    between atoms: C_5  and  C_13 
REMARK    8  A    between atoms: C_6  and  C_15 
REMARK    9  A    between atoms: C_6  and  C_16 
REMARK   10  A    between atoms: C_7  and  C_23 
REMARK   11  A    between atoms: C_9  and  C_17 
REMARK   12  A    between atoms: C_9  and  C_18 
REMARK   13  A    between atoms: C_14  and  C_19 
REMARK   14  A    between atoms: C_14  and  C_20 
REMARK   15  A    between atoms: C_21  and  C_22 
ROOT
HETATM    1  O   UNL     1      39.620   9.610  -7.181  1.00  0.00    -0.776 OA
HETATM    2  H   UNL     1      38.686   9.524  -7.416  1.00  0.00     0.167 HD
ENDROOT
BRANCH   1   3
HETATM    3  C   UNL     1      40.598   9.308  -8.062  1.00  0.00     0.139 C 
HETATM    4  O   UNL     1      41.605  10.000  -8.119  1.00  0.00    -0.650 OA
BRANCH   3   5
HETATM    5  C   UNL     1      40.446   8.119  -8.967  1.00  0.00     0.113 C 
BRANCH   5   6
HETATM    6  C   UNL     1      39.109   8.168  -9.715  1.00  0.00     0.037 C 
BRANCH   6   7
HETATM    7  C   UNL     1      39.045   7.081 -10.762  1.00  0.00    -0.030 C 
HETATM    8  C   UNL     1      39.335   7.201 -12.075  1.00  0.00    -0.027 C 
BRANCH   8   9
HETATM    9  C   UNL     1      39.791   8.444 -12.809  1.00  0.00     0.053 C 
BRANCH   9  10
HETATM   10  C   UNL     1      40.623   8.081 -14.012  1.00  0.00    -0.027 C 
HETATM   11  C   UNL     1      40.157   7.564 -15.163  1.00  0.00    -0.027 C 
BRANCH  11  12
HETATM   12  C   UNL     1      38.708   7.305 -15.481  1.00  0.00     0.053 C 
BRANCH  12  13
HETATM   13  C   UNL     1      38.189   8.308 -16.482  1.00  0.00    -0.027 C 
HETATM   14  C   UNL     1      38.484   8.358 -17.795  1.00  0.00    -0.027 C 
BRANCH  14  15
HETATM   15  C   UNL     1      39.435   7.448 -18.526  1.00  0.00     0.053 C 
BRANCH  15  16
HETATM   16  C   UNL     1      38.798   7.038 -19.835  1.00  0.00    -0.027 C 
HETATM   17  C   UNL     1      39.031   7.542 -21.064  1.00  0.00    -0.027 C 
BRANCH  17  18
HETATM   18  C   UNL     1      40.004   8.631 -21.430  1.00  0.00     0.053 C 
BRANCH  18  19
HETATM   19  C   UNL     1      39.522   9.970 -20.923  1.00  0.00    -0.027 C 
HETATM   20  C   UNL     1      40.219  10.877 -20.209  1.00  0.00    -0.027 C 
BRANCH  20  21
HETATM   21  C   UNL     1      41.668  10.790 -19.794  1.00  0.00     0.053 C 
BRANCH  21  22
HETATM   22  C   UNL     1      41.824   9.929 -18.562  1.00  0.00    -0.027 C 
HETATM   23  C   UNL     1      41.589  10.285 -17.284  1.00  0.00    -0.031 C 
BRANCH  23  24
HETATM   24  C   UNL     1      41.134  11.636 -16.798  1.00  0.00     0.022 C 
HETATM   25  C   UNL     1      39.739  11.597 -16.187  1.00  0.00     0.009 C 
ENDBRANCH  23  24
ENDBRANCH  21  22
ENDBRANCH  20  21
ENDBRANCH  18  19
ENDBRANCH  17  18
ENDBRANCH  15  16
ENDBRANCH  14  15
ENDBRANCH  12  13
ENDBRANCH  11  12
ENDBRANCH   9  10
ENDBRANCH   8   9
ENDBRANCH   6   7
ENDBRANCH   5   6
ENDBRANCH   3   5
ENDBRANCH   1   3
TORSDOF 15
ENDMDL
MODEL 6
REMARK VINA RESULT:      -4.7     23.829     26.812
REMARK  15 active torsions:
REMARK  status: ('A' for Active; 'I' for Inactive)
REMARK    1  A    between atoms: O_1  and  C_23 
REMARK    2  A    between atoms: C_3  and  C_7 
REMARK    3  A    between atoms: C_3  and  C_8 
REMARK    4  A    between atoms: C_4  and  C_10 
REMARK    5  A    between atoms: C_4  and  C_11 
REMARK    6  A    between atoms: C_5  and  C_12 
REMARK    7  A    between atoms: C_5  and  C_13 
REMARK    8  A    between atoms: C_6  and  C_15 
REMARK    9  A    between atoms: C_6  and  C_16 
REMARK   10  A    between atoms: C_7  and  C_23 
REMARK   11  A    between atoms: C_9  and  C_17 
REMARK   12  A    between atoms: C_9  and  C_18 
REMARK   13  A    between atoms: C_14  and  C_19 
REMARK   14  A    between atoms: C_14  and  C_20 
REMARK   15  A    between atoms: C_21  and  C_22 
ROOT
HETATM    1  O   UNL     1      38.839   7.022 -14.473  1.00  0.00    -0.776 OA
HETATM    2  H   UNL     1      39.138   6.169 -14.817  1.00  0.00     0.167 HD
ENDROOT
BRANCH   1   3
HETATM    3  C   UNL     1      39.578   7.721 -13.586  1.00  0.00     0.139 C 
HETATM    4  O   UNL     1      40.728   8.034 -13.858  1.00  0.00    -0.650 OA
BRANCH   3   5
HETATM    5  C   UNL     1      38.980   8.117 -12.265  1.00  0.00     0.113 C 
BRANCH   5   6
HETATM    6  C   UNL     1      39.268   7.058 -11.195  1.00  0.00     0.037 C 
BRANCH   6   7
HETATM    7  C   UNL     1      40.360   7.526 -10.263  1.00  0.00    -0.030 C 
HETATM    8  C   UNL     1      40.266   7.709  -8.929  1.00  0.00    -0.027 C 
BRANCH   8   9
HETATM    9  C   UNL     1      39.051   7.492  -8.053  1.00  0.00     0.053 C 
BRANCH   9  10
HETATM   10  C   UNL     1      38.605   8.787  -7.423  1.00  0.00    -0.027 C 
HETATM   11  C   UNL     1      38.112   8.927  -6.179  1.00  0.00    -0.027 C 
BRANCH  11  12
HETATM   12  C   UNL     1      37.970   7.821  -5.165  1.00  0.00     0.053 C 
BRANCH  12  13
HETATM   13  C   UNL     1      39.320   7.264  -4.785  1.00  0.00    -0.027 C 
HETATM   14  C   UNL     1      40.220   7.834  -3.962  1.00  0.00    -0.027 C 
BRANCH  14  15
HETATM   15  C   UNL     1      40.084   9.174  -3.289  1.00  0.00     0.053 C 
BRANCH  15  16
HETATM   16  C   UNL     1      41.420   9.881  -3.351  1.00  0.00    -0.027 C 
HETATM   17  C   UNL     1      41.965  10.533  -4.398  1.00  0.00    -0.027 C 
BRANCH  17  18
HETATM   18  C   UNL     1      41.359  10.730  -5.762  1.00  0.00     0.053 C 
BRANCH  18  19
HETATM   19  C   UNL     1      42.165  11.723  -6.566  1.00  0.00    -0.027 C 
HETATM   20  C   UNL     1      42.562  11.610  -7.850  1.00  0.00    -0.027 C 
BRANCH  20  21
HETATM   21  C   UNL     1      42.246  10.486  -8.805  1.00  0.00     0.053 C 
BRANCH  21  22
HETATM   22  C   UNL     1      41.860  11.026 -10.163  1.00  0.00    -0.027 C 
HETATM   23  C   UNL     1      40.620  11.322 -10.600  1.00  0.00    -0.031 C 
BRANCH  23  24
HETATM   24  C   UNL     1      39.335  11.160  -9.831  1.00  0.00     0.022 C 
HETATM   25  C   UNL     1      39.053  12.340  -8.910  1.00  0.00     0.009 C 
ENDBRANCH  23  24
ENDBRANCH  21  22
ENDBRANCH  20  21
ENDBRANCH  18  19
ENDBRANCH  17  18
ENDBRANCH  15  16
ENDBRANCH  14  15
ENDBRANCH  12  13
ENDBRANCH  11  12
ENDBRANCH   9  10
ENDBRANCH   8   9
ENDBRANCH   6   7
ENDBRANCH   5   6
ENDBRANCH   3   5
ENDBRANCH   1   3
TORSDOF 15
ENDMDL
MODEL 7
REMARK VINA RESULT:      -4.7      2.776      4.512
REMARK  15 active torsions:
REMARK  status: ('A' for Active; 'I' for Inactive)
REMARK    1  A    between atoms: O_1  and  C_23 
REMARK    2  A    between atoms: C_3  and  C_7 
REMARK    3  A    between atoms: C_3  and  C_8 
REMARK    4  A    between atoms: C_4  and  C_10 
REMARK    5  A    between atoms: C_4  and  C_11 
REMARK    6  A    between atoms: C_5  and  C_12 
REMARK    7  A    between atoms: C_5  and  C_13 
REMARK    8  A    between atoms: C_6  and  C_15 
REMARK    9  A    between atoms: C_6  and  C_16 
REMARK   10  A    between atoms: C_7  and  C_23 
REMARK   11  A    between atoms: C_9  and  C_17 
REMARK   12  A    between atoms: C_9  and  C_18 
REMARK   13  A    between atoms: C_14  and  C_19 
REMARK   14  A    between atoms: C_14  and  C_20 
REMARK   15  A    between atoms: C_21  and  C_22 
ROOT
HETATM    1  O   UNL     1      32.616 -20.389  -9.010  1.00  0.00    -0.776 OA
HETATM    2  H   UNL     1      33.347 -19.886  -8.624  1.00  0.00     0.167 HD
ENDROOT
BRANCH   1   3
HETATM    3  C   UNL     1      31.348 -20.236  -8.572  1.00  0.00     0.139 C 
HETATM    4  O   UNL     1      31.084 -20.401  -7.389  1.00  0.00    -0.650 OA
BRANCH   3   5
HETATM    5  C   UNL     1      30.264 -19.858  -9.541  1.00  0.00     0.113 C 
BRANCH   5   6
HETATM    6  C   UNL     1      30.859 -19.244 -10.814  1.00  0.00     0.037 C 
BRANCH   6   7
HETATM    7  C   UNL     1      31.020 -20.295 -11.886  1.00  0.00    -0.030 C 
HETATM    8  C   UNL     1      30.520 -20.259 -13.140  1.00  0.00    -0.027 C 
BRANCH   8   9
HETATM    9  C   UNL     1      29.683 -19.166 -13.768  1.00  0.00     0.053 C 
BRANCH   9  10
HETATM   10  C   UNL     1      30.312 -18.677 -15.048  1.00  0.00    -0.027 C 
HETATM   11  C   UNL     1      30.322 -17.403 -15.482  1.00  0.00    -0.027 C 
BRANCH  11  12
HETATM   12  C   UNL     1      29.756 -16.222 -14.738  1.00  0.00     0.053 C 
BRANCH  12  13
HETATM   13  C   UNL     1      30.742 -15.080 -14.712  1.00  0.00    -0.027 C 
HETATM   14  C   UNL     1      31.849 -14.993 -13.952  1.00  0.00    -0.027 C 
BRANCH  14  15
HETATM   15  C   UNL     1      32.306 -16.001 -12.931  1.00  0.00     0.053 C 
BRANCH  15  16
HETATM   16  C   UNL     1      32.520 -15.288 -11.614  1.00  0.00    -0.027 C 
HETATM   17  C   UNL     1      31.662 -15.182 -10.579  1.00  0.00    -0.027 C 
BRANCH  17  18
HETATM   18  C   UNL     1      30.279 -15.771 -10.481  1.00  0.00     0.053 C 
BRANCH  18  19
HETATM   19  C   UNL     1      29.887 -15.973  -9.036  1.00  0.00    -0.027 C 
HETATM   20  C   UNL     1      29.133 -15.159  -8.269  1.00  0.00    -0.027 C 
BRANCH  20  21
HETATM   21  C   UNL     1      28.457 -13.879  -8.692  1.00  0.00     0.053 C 
BRANCH  21  22
HETATM   22  C   UNL     1      29.447 -12.739  -8.744  1.00  0.00    -0.027 C 
HETATM   23  C   UNL     1      29.617 -11.851  -9.743  1.00  0.00    -0.031 C 
BRANCH  23  24
HETATM   24  C   UNL     1      28.862 -11.811 -11.046  1.00  0.00     0.022 C 
HETATM   25  C   UNL     1      29.587 -12.552 -12.163  1.00  0.00     0.009 C 
ENDBRANCH  23  24
ENDBRANCH  21  22
ENDBRANCH  20  21
ENDBRANCH  18  19
ENDBRANCH  17  18
ENDBRANCH  15  16
ENDBRANCH  14  15
ENDBRANCH  12  13
ENDBRANCH  11  12
ENDBRANCH   9  10
ENDBRANCH   8   9
ENDBRANCH   6   7
ENDBRANCH   5   6
ENDBRANCH   3   5
ENDBRANCH   1   3
TORSDOF 15
ENDMDL
MODEL 8
REMARK VINA RESULT:      -4.7      2.824      4.914
REMARK  15 active torsions:
REMARK  status: ('A' for Active; 'I' for Inactive)
REMARK    1  A    between atoms: O_1  and  C_23 
REMARK    2  A    between atoms: C_3  and  C_7 
REMARK    3  A    between atoms: C_3  and  C_8 
REMARK    4  A    between atoms: C_4  and  C_10 
REMARK    5  A    between atoms: C_4  and  C_11 
REMARK    6  A    between atoms: C_5  and  C_12 
REMARK    7  A    between atoms: C_5  and  C_13 
REMARK    8  A    between atoms: C_6  and  C_15 
REMARK    9  A    between atoms: C_6  and  C_16 
REMARK   10  A    between atoms: C_7  and  C_23 
REMARK   11  A    between atoms: C_9  and  C_17 
REMARK   12  A    between atoms: C_9  and  C_18 
REMARK   13  A    between atoms: C_14  and  C_19 
REMARK   14  A    between atoms: C_14  and  C_20 
REMARK   15  A    between atoms: C_21  and  C_22 
ROOT
HETATM    1  O   UNL     1      32.066 -20.325 -18.566  1.00  0.00    -0.776 OA
HETATM    2  H   UNL     1      32.423 -19.588 -19.080  1.00  0.00     0.167 HD
ENDROOT
BRANCH   1   3
HETATM    3  C   UNL     1      30.883 -20.228 -17.923  1.00  0.00     0.139 C 
HETATM    4  O   UNL     1      29.888 -20.766 -18.388  1.00  0.00    -0.650 OA
BRANCH   3   5
HETATM    5  C   UNL     1      30.794 -19.461 -16.635  1.00  0.00     0.113 C 
BRANCH   5   6
HETATM    6  C   UNL     1      31.030 -20.381 -15.432  1.00  0.00     0.037 C 
BRANCH   6   7
HETATM    7  C   UNL     1      29.986 -20.143 -14.367  1.00  0.00    -0.030 C 
HETATM    8  C   UNL     1      29.968 -19.148 -13.456  1.00  0.00    -0.027 C 
BRANCH   8   9
HETATM    9  C   UNL     1      30.983 -18.038 -13.283  1.00  0.00     0.053 C 
BRANCH   9  10
HETATM   10  C   UNL     1      30.317 -16.687 -13.342  1.00  0.00    -0.027 C 
HETATM   11  C   UNL     1      30.497 -15.763 -14.303  1.00  0.00    -0.027 C 
BRANCH  11  12
HETATM   12  C   UNL     1      31.355 -15.934 -15.530  1.00  0.00     0.053 C 
BRANCH  12  13
HETATM   13  C   UNL     1      32.709 -15.299 -15.332  1.00  0.00    -0.027 C 
HETATM   14  C   UNL     1      33.139 -14.142 -15.870  1.00  0.00    -0.027 C 
BRANCH  14  15
HETATM   15  C   UNL     1      32.370 -13.266 -16.822  1.00  0.00     0.053 C 
BRANCH  15  16
HETATM   16  C   UNL     1      32.399 -11.847 -16.301  1.00  0.00    -0.027 C 
HETATM   17  C   UNL     1      31.653 -11.310 -15.314  1.00  0.00    -0.027 C 
BRANCH  17  18
HETATM   18  C   UNL     1      30.615 -12.010 -14.476  1.00  0.00     0.053 C 
BRANCH  18  19
HETATM   19  C   UNL     1      29.223 -11.609 -14.906  1.00  0.00    -0.027 C 
HETATM   20  C   UNL     1      28.435 -12.222 -15.813  1.00  0.00    -0.027 C 
BRANCH  20  21
HETATM   21  C   UNL     1      28.739 -13.489 -16.573  1.00  0.00     0.053 C 
BRANCH  21  22
HETATM   22  C   UNL     1      28.920 -13.203 -18.045  1.00  0.00    -0.027 C 
HETATM   23  C   UNL     1      29.276 -14.076 -19.007  1.00  0.00    -0.031 C 
BRANCH  23  24
HETATM   24  C   UNL     1      29.591 -15.538 -18.821  1.00  0.00     0.022 C 
HETATM   25  C   UNL     1      31.034 -15.873 -19.179  1.00  0.00     0.009 C 
ENDBRANCH  23  24
ENDBRANCH  21  22
ENDBRANCH  20  21
ENDBRANCH  18  19
ENDBRANCH  17  18
ENDBRANCH  15  16
ENDBRANCH  14  15
ENDBRANCH  12  13
ENDBRANCH  11  12
ENDBRANCH   9  10
ENDBRANCH   8   9
ENDBRANCH   6   7
ENDBRANCH   5   6
ENDBRANCH   3   5
ENDBRANCH   1   3
TORSDOF 15
ENDMDL
MODEL 9
REMARK VINA RESULT:      -4.7      5.381      7.800
REMARK  15 active torsions:
REMARK  status: ('A' for Active; 'I' for Inactive)
REMARK    1  A    between atoms: O_1  and  C_23 
REMARK    2  A    between atoms: C_3  and  C_7 
REMARK    3  A    between atoms: C_3  and  C_8 
REMARK    4  A    between atoms: C_4  and  C_10 
REMARK    5  A    between atoms: C_4  and  C_11 
REMARK    6  A    between atoms: C_5  and  C_12 
REMARK    7  A    between atoms: C_5  and  C_13 
REMARK    8  A    between atoms: C_6  and  C_15 
REMARK    9  A    between atoms: C_6  and  C_16 
REMARK   10  A    between atoms: C_7  and  C_23 
REMARK   11  A    between atoms: C_9  and  C_17 
REMARK   12  A    between atoms: C_9  and  C_18 
REMARK   13  A    between atoms: C_14  and  C_19 
REMARK   14  A    between atoms: C_14  and  C_20 
REMARK   15  A    between atoms: C_21  and  C_22 
ROOT
HETATM    1  O   UNL     1      32.089 -20.802  -9.542  1.00  0.00    -0.776 OA
HETATM    2  H   UNL     1      32.582 -20.252  -8.918  1.00  0.00     0.167 HD
ENDROOT
BRANCH   1   3
HETATM    3  C   UNL     1      31.161 -20.272 -10.367  1.00  0.00     0.139 C 
HETATM    4  O   UNL     1      30.854 -20.854 -11.398  1.00  0.00    -0.650 OA
BRANCH   3   5
HETATM    5  C   UNL     1      30.505 -18.968 -10.013  1.00  0.00     0.113 C 
BRANCH   5   6
HETATM    6  C   UNL     1      29.802 -19.061  -8.654  1.00  0.00     0.037 C 
BRANCH   6   7
HETATM    7  C   UNL     1      30.039 -17.807  -7.846  1.00  0.00    -0.030 C 
HETATM    8  C   UNL     1      30.538 -17.730  -6.594  1.00  0.00    -0.027 C 
BRANCH   8   9
HETATM    9  C   UNL     1      30.978 -18.874  -5.705  1.00  0.00     0.053 C 
BRANCH   9  10
HETATM   10  C   UNL     1      29.946 -19.156  -4.643  1.00  0.00    -0.027 C 
HETATM   11  C   UNL     1      29.886 -18.574  -3.431  1.00  0.00    -0.027 C 
BRANCH  11  12
HETATM   12  C   UNL     1      30.808 -17.491  -2.936  1.00  0.00     0.053 C 
BRANCH  12  13
HETATM   13  C   UNL     1      30.032 -16.401  -2.238  1.00  0.00    -0.027 C 
HETATM   14  C   UNL     1      29.832 -15.147  -2.683  1.00  0.00    -0.027 C 
BRANCH  14  15
HETATM   15  C   UNL     1      30.387 -14.557  -3.953  1.00  0.00     0.053 C 
BRANCH  15  16
HETATM   16  C   UNL     1      30.052 -13.083  -3.985  1.00  0.00    -0.027 C 
HETATM   17  C   UNL     1      29.672 -12.342  -5.046  1.00  0.00    -0.027 C 
BRANCH  17  18
HETATM   18  C   UNL     1      29.472 -12.817  -6.461  1.00  0.00     0.053 C 
BRANCH  18  19
HETATM   19  C   UNL     1      28.069 -13.343  -6.654  1.00  0.00    -0.027 C 
HETATM   20  C   UNL     1      27.583 -14.016  -7.716  1.00  0.00    -0.027 C 
BRANCH  20  21
HETATM   21  C   UNL     1      28.346 -14.452  -8.943  1.00  0.00     0.053 C 
BRANCH  21  22
HETATM   22  C   UNL     1      27.899 -13.673 -10.159  1.00  0.00    -0.027 C 
HETATM   23  C   UNL     1      28.392 -12.500 -10.601  1.00  0.00    -0.031 C 
BRANCH  23  24
HETATM   24  C   UNL     1      29.493 -11.692  -9.965  1.00  0.00     0.022 C 
HETATM   25  C   UNL     1      30.839 -11.903 -10.645  1.00  0.00     0.009 C 
ENDBRANCH  23  24
ENDBRANCH  21  22
ENDBRANCH  20  21
ENDBRANCH  18  19
ENDBRANCH  17  18
ENDBRANCH  15  16
ENDBRANCH  14  15
ENDBRANCH  12  13
ENDBRANCH  11  12
ENDBRANCH   9  10
ENDBRANCH   8   9
ENDBRANCH   6   7
ENDBRANCH   5   6
ENDBRANCH   3   5
ENDBRANCH   1   3
TORSDOF 15
ENDMDL
MODEL 10
REMARK VINA RESULT:      -4.6      2.943      5.037
REMARK  15 active torsions:
REMARK  status: ('A' for Active; 'I' for Inactive)
REMARK    1  A    between atoms: O_1  and  C_23 
REMARK    2  A    between atoms: C_3  and  C_7 
REMARK    3  A    between atoms: C_3  and  C_8 
REMARK    4  A    between atoms: C_4  and  C_10 
REMARK    5  A    between atoms: C_4  and  C_11 
REMARK    6  A    between atoms: C_5  and  C_12 
REMARK    7  A    between atoms: C_5  and  C_13 
REMARK    8  A    between atoms: C_6  and  C_15 
REMARK    9  A    between atoms: C_6  and  C_16 
REMARK   10  A    between atoms: C_7  and  C_23 
REMARK   11  A    between atoms: C_9  and  C_17 
REMARK   12  A    between atoms: C_9  and  C_18 
REMARK   13  A    between atoms: C_14  and  C_19 
REMARK   14  A    between atoms: C_14  and  C_20 
REMARK   15  A    between atoms: C_21  and  C_22 
ROOT
HETATM    1  O   UNL     1      32.446 -20.270  -9.080  1.00  0.00    -0.776 OA
HETATM    2  H   UNL     1      33.098 -20.973  -9.210  1.00  0.00     0.167 HD
ENDROOT
BRANCH   1   3
HETATM    3  C   UNL     1      31.242 -20.306  -9.690  1.00  0.00     0.139 C 
HETATM    4  O   UNL     1      31.102 -20.925 -10.735  1.00  0.00    -0.650 OA
BRANCH   3   5
HETATM    5  C   UNL     1      30.074 -19.586  -9.078  1.00  0.00     0.113 C 
BRANCH   5   6
HETATM    6  C   UNL     1      30.167 -18.077  -9.333  1.00  0.00     0.037 C 
BRANCH   6   7
HETATM    7  C   UNL     1      30.371 -17.330  -8.036  1.00  0.00    -0.030 C 
HETATM    8  C   UNL     1      31.178 -16.267  -7.831  1.00  0.00    -0.027 C 
BRANCH   8   9
HETATM    9  C   UNL     1      32.065 -15.573  -8.842  1.00  0.00     0.053 C 
BRANCH   9  10
HETATM   10  C   UNL     1      33.358 -15.130  -8.207  1.00  0.00    -0.027 C 
HETATM   11  C   UNL     1      33.587 -13.929  -7.645  1.00  0.00    -0.027 C 
BRANCH  11  12
HETATM   12  C   UNL     1      32.571 -12.826  -7.496  1.00  0.00     0.053 C 
BRANCH  12  13
HETATM   13  C   UNL     1      33.003 -11.592  -8.249  1.00  0.00    -0.027 C 
HETATM   14  C   UNL     1      32.635 -11.243  -9.496  1.00  0.00    -0.027 C 
BRANCH  14  15
HETATM   15  C   UNL     1      31.751 -12.041 -10.417  1.00  0.00     0.053 C 
BRANCH  15  16
HETATM   16  C   UNL     1      30.346 -11.489 -10.334  1.00  0.00    -0.027 C 
HETATM   17  C   UNL     1      29.290 -12.004  -9.672  1.00  0.00    -0.027 C 
BRANCH  17  18
HETATM   18  C   UNL     1      29.265 -13.255  -8.834  1.00  0.00     0.053 C 
BRANCH  18  19
HETATM   19  C   UNL     1      28.308 -14.268  -9.417  1.00  0.00    -0.027 C 
HETATM   20  C   UNL     1      28.443 -14.957 -10.568  1.00  0.00    -0.027 C 
BRANCH  20  21
HETATM   21  C   UNL     1      29.613 -14.917 -11.521  1.00  0.00     0.053 C 
BRANCH  21  22
HETATM   22  C   UNL     1      29.142 -15.005 -12.954  1.00  0.00    -0.027 C 
HETATM   23  C   UNL     1      29.049 -13.998 -13.844  1.00  0.00    -0.031 C 
BRANCH  23  24
HETATM   24  C   UNL     1      29.378 -12.548 -13.597  1.00  0.00     0.022 C 
HETATM   25  C   UNL     1      29.427 -11.734 -14.884  1.00  0.00     0.009 C 
ENDBRANCH  23  24
ENDBRANCH  21  22
ENDBRANCH  20  21
ENDBRANCH  18  19
ENDBRANCH  17  18
ENDBRANCH  15  16
ENDBRANCH  14  15
ENDBRANCH  12  13
ENDBRANCH  11  12
ENDBRANCH   9  10
ENDBRANCH   8   9
ENDBRANCH   6   7
ENDBRANCH   5   6
ENDBRANCH   3   5
ENDBRANCH   1   3
TORSDOF 15
ENDMDL
MODEL 11
REMARK VINA RESULT:      -4.6      5.336      8.194
REMARK  15 active torsions:
REMARK  status: ('A' for Active; 'I' for Inactive)
REMARK    1  A    between atoms: O_1  and  C_23 
REMARK    2  A    between atoms: C_3  and  C_7 
REMARK    3  A    between atoms: C_3  and  C_8 
REMARK    4  A    between atoms: C_4  and  C_10 
REMARK    5  A    between atoms: C_4  and  C_11 
REMARK    6  A    between atoms: C_5  and  C_12 
REMARK    7  A    between atoms: C_5  and  C_13 
REMARK    8  A    between atoms: C_6  and  C_15 
REMARK    9  A    between atoms: C_6  and  C_16 
REMARK   10  A    between atoms: C_7  and  C_23 
REMARK   11  A    between atoms: C_9  and  C_17 
REMARK   12  A    between atoms: C_9  and  C_18 
REMARK   13  A    between atoms: C_14  and  C_19 
REMARK   14  A    between atoms: C_14  and  C_20 
REMARK   15  A    between atoms: C_21  and  C_22 
ROOT
HETATM    1  O   UNL     1      31.814 -21.076  -5.128  1.00  0.00    -0.776 OA
HETATM    2  H   UNL     1      31.503 -21.563  -4.352  1.00  0.00     0.167 HD
ENDROOT
BRANCH   1   3
HETATM    3  C   UNL     1      30.957 -20.409  -5.930  1.00  0.00     0.139 C 
HETATM    4  O   UNL     1      30.785 -20.778  -7.083  1.00  0.00    -0.650 OA
BRANCH   3   5
HETATM    5  C   UNL     1      30.215 -19.216  -5.400  1.00  0.00     0.113 C 
BRANCH   5   6
HETATM    6  C   UNL     1      31.178 -18.216  -4.751  1.00  0.00     0.037 C 
BRANCH   6   7
HETATM    7  C   UNL     1      30.503 -17.488  -3.613  1.00  0.00    -0.030 C 
HETATM    8  C   UNL     1      29.819 -16.327  -3.683  1.00  0.00    -0.027 C 
BRANCH   8   9
HETATM    9  C   UNL     1      29.564 -15.481  -4.912  1.00  0.00     0.053 C 
BRANCH   9  10
HETATM   10  C   UNL     1      28.893 -14.182  -4.540  1.00  0.00    -0.027 C 
HETATM   11  C   UNL     1      29.521 -13.054  -4.164  1.00  0.00    -0.027 C 
BRANCH  11  12
HETATM   12  C   UNL     1      31.014 -12.862  -4.102  1.00  0.00     0.053 C 
BRANCH  12  13
HETATM   13  C   UNL     1      31.443 -11.694  -4.954  1.00  0.00    -0.027 C 
HETATM   14  C   UNL     1      31.856 -11.742  -6.234  1.00  0.00    -0.027 C 
BRANCH  14  15
HETATM   15  C   UNL     1      32.022 -12.986  -7.066  1.00  0.00     0.053 C 
BRANCH  15  16
HETATM   16  C   UNL     1      30.692 -13.316  -7.708  1.00  0.00    -0.027 C 
HETATM   17  C   UNL     1      30.450 -14.177  -8.717  1.00  0.00    -0.027 C 
BRANCH  17  18
HETATM   18  C   UNL     1      31.453 -15.038  -9.438  1.00  0.00     0.053 C 
BRANCH  18  19
HETATM   19  C   UNL     1      31.910 -16.177  -8.557  1.00  0.00    -0.027 C 
HETATM   20  C   UNL     1      31.279 -17.350  -8.339  1.00  0.00    -0.027 C 
BRANCH  20  21
HETATM   21  C   UNL     1      29.992 -17.822  -8.969  1.00  0.00     0.053 C 
BRANCH  21  22
HETATM   22  C   UNL     1      30.266 -18.829 -10.062  1.00  0.00    -0.027 C 
HETATM   23  C   UNL     1      30.368 -18.589 -11.384  1.00  0.00    -0.031 C 
BRANCH  23  24
HETATM   24  C   UNL     1      30.211 -17.257 -12.069  1.00  0.00     0.022 C 
HETATM   25  C   UNL     1      31.320 -16.986 -13.078  1.00  0.00     0.009 C 
ENDBRANCH  23  24
ENDBRANCH  21  22
ENDBRANCH  20  21
ENDBRANCH  18  19
ENDBRANCH  17  18
ENDBRANCH  15  16
ENDBRANCH  14  15
ENDBRANCH  12  13
ENDBRANCH  11  12
ENDBRANCH   9  10
ENDBRANCH   8   9
ENDBRANCH   6   7
ENDBRANCH   5   6
ENDBRANCH   3   5
ENDBRANCH   1   3
TORSDOF 15
ENDMDL
MODEL 12
REMARK VINA RESULT:      -4.6      4.142      6.093
REMARK  15 active torsions:
REMARK  status: ('A' for Active; 'I' for Inactive)
REMARK    1  A    between atoms: O_1  and  C_23 
REMARK    2  A    between atoms: C_3  and  C_7 
REMARK    3  A    between atoms: C_3  and  C_8 
REMARK    4  A    between atoms: C_4  and  C_10 
REMARK    5  A    between atoms: C_4  and  C_11 
REMARK    6  A    between atoms: C_5  and  C_12 
REMARK    7  A    between atoms: C_5  and  C_13 
REMARK    8  A    between atoms: C_6  and  C_15 
REMARK    9  A    between atoms: C_6  and  C_16 
REMARK   10  A    between atoms: C_7  and  C_23 
REMARK   11  A    between atoms: C_9  and  C_17 
REMARK   12  A    between atoms: C_9  and  C_18 
REMARK   13  A    between atoms: C_14  and  C_19 
REMARK   14  A    between atoms: C_14  and  C_20 
REMARK   15  A    between atoms: C_21  and  C_22 
ROOT
HETATM    1  O   UNL     1      32.376 -20.653 -10.248  1.00  0.00    -0.776 OA
HETATM    2  H   UNL     1      32.960 -21.064 -10.901  1.00  0.00     0.167 HD
ENDROOT
BRANCH   1   3
HETATM    3  C   UNL     1      31.038 -20.619 -10.424  1.00  0.00     0.139 C 
HETATM    4  O   UNL     1      30.561 -20.821 -11.532  1.00  0.00    -0.650 OA
BRANCH   3   5
HETATM    5  C   UNL     1      30.139 -20.336  -9.255  1.00  0.00     0.113 C 
BRANCH   5   6
HETATM    6  C   UNL     1      30.931 -19.735  -8.088  1.00  0.00     0.037 C 
BRANCH   6   7
HETATM    7  C   UNL     1      30.204 -18.546  -7.508  1.00  0.00    -0.030 C 
HETATM    8  C   UNL     1      30.237 -17.274  -7.959  1.00  0.00    -0.027 C 
BRANCH   8   9
HETATM    9  C   UNL     1      31.004 -16.738  -9.149  1.00  0.00     0.053 C 
BRANCH   9  10
HETATM   10  C   UNL     1      30.089 -16.527 -10.328  1.00  0.00    -0.027 C 
HETATM   11  C   UNL     1      29.244 -15.493 -10.492  1.00  0.00    -0.027 C 
BRANCH  11  12
HETATM   12  C   UNL     1      29.100 -14.325  -9.552  1.00  0.00     0.053 C 
BRANCH  12  13
HETATM   13  C   UNL     1      29.170 -13.018 -10.303  1.00  0.00    -0.027 C 
HETATM   14  C   UNL     1      30.283 -12.328 -10.613  1.00  0.00    -0.027 C 
BRANCH  14  15
HETATM   15  C   UNL     1      31.691 -12.698 -10.228  1.00  0.00     0.053 C 
BRANCH  15  16
HETATM   16  C   UNL     1      32.116 -11.825  -9.068  1.00  0.00    -0.027 C 
HETATM   17  C   UNL     1      32.018 -12.093  -7.750  1.00  0.00    -0.027 C 
BRANCH  17  18
HETATM   18  C   UNL     1      31.472 -13.345  -7.115  1.00  0.00     0.053 C 
BRANCH  18  19
HETATM   19  C   UNL     1      32.573 -14.358  -6.902  1.00  0.00    -0.027 C 
HETATM   20  C   UNL     1      32.820 -15.081  -5.790  1.00  0.00    -0.027 C 
BRANCH  20  21
HETATM   21  C   UNL     1      32.018 -15.087  -4.512  1.00  0.00     0.053 C 
BRANCH  21  22
HETATM   22  C   UNL     1      31.110 -16.293  -4.453  1.00  0.00    -0.027 C 
HETATM   23  C   UNL     1      29.763 -16.301  -4.464  1.00  0.00    -0.031 C 
BRANCH  23  24
HETATM   24  C   UNL     1      28.859 -15.097  -4.519  1.00  0.00     0.022 C 
HETATM   25  C   UNL     1      28.356 -14.809  -5.928  1.00  0.00     0.009 C 
ENDBRANCH  23  24
ENDBRANCH  21  22
ENDBRANCH  20  21
ENDBRANCH  18  19
ENDBRANCH  17  18
ENDBRANCH  15  16
ENDBRANCH  14  15
ENDBRANCH  12  13
ENDBRANCH  11  12
ENDBRANCH   9  10
ENDBRANCH   8   9
ENDBRANCH   6   7
ENDBRANCH   5   6
ENDBRANCH   3   5
ENDBRANCH   1   3
TORSDOF 15
ENDMDL
MODEL 13
REMARK VINA RESULT:      -4.5      5.565      8.086
REMARK  15 active torsions:
REMARK  status: ('A' for Active; 'I' for Inactive)
REMARK    1  A    between atoms: O_1  and  C_23 
REMARK    2  A    between atoms: C_3  and  C_7 
REMARK    3  A    between atoms: C_3  and  C_8 
REMARK    4  A    between atoms: C_4  and  C_10 
REMARK    5  A    between atoms: C_4  and  C_11 
REMARK    6  A    between atoms: C_5  and  C_12 
REMARK    7  A    between atoms: C_5  and  C_13 
REMARK    8  A    between atoms: C_6  and  C_15 
REMARK    9  A    between atoms: C_6  and  C_16 
REMARK   10  A    between atoms: C_7  and  C_23 
REMARK   11  A    between atoms: C_9  and  C_17 
REMARK   12  A    between atoms: C_9  and  C_18 
REMARK   13  A    between atoms: C_14  and  C_19 
REMARK   14  A    between atoms: C_14  and  C_20 
REMARK   15  A    between atoms: C_21  and  C_22 
ROOT
HETATM    1  O   UNL     1      31.752 -21.088  -5.250  1.00  0.00    -0.776 OA
HETATM    2  H   UNL     1      32.230 -21.660  -4.634  1.00  0.00     0.167 HD
ENDROOT
BRANCH   1   3
HETATM    3  C   UNL     1      30.659 -20.396  -4.864  1.00  0.00     0.139 C 
HETATM    4  O   UNL     1      30.000 -20.776  -3.906  1.00  0.00    -0.650 OA
BRANCH   3   5
HETATM    5  C   UNL     1      30.258 -19.156  -5.611  1.00  0.00     0.113 C 
BRANCH   5   6
HETATM    6  C   UNL     1      30.953 -17.918  -5.031  1.00  0.00     0.037 C 
BRANCH   6   7
HETATM    7  C   UNL     1      29.934 -16.909  -4.558  1.00  0.00    -0.030 C 
HETATM    8  C   UNL     1      30.177 -15.766  -3.881  1.00  0.00    -0.027 C 
BRANCH   8   9
HETATM    9  C   UNL     1      31.519 -15.225  -3.438  1.00  0.00     0.053 C 
BRANCH   9  10
HETATM   10  C   UNL     1      32.256 -14.602  -4.596  1.00  0.00    -0.027 C 
HETATM   11  C   UNL     1      32.113 -13.336  -5.028  1.00  0.00    -0.027 C 
BRANCH  11  12
HETATM   12  C   UNL     1      31.231 -12.291  -4.396  1.00  0.00     0.053 C 
BRANCH  12  13
HETATM   13  C   UNL     1      30.433 -11.555  -5.443  1.00  0.00    -0.027 C 
HETATM   14  C   UNL     1      29.155 -11.794  -5.793  1.00  0.00    -0.027 C 
BRANCH  14  15
HETATM   15  C   UNL     1      28.273 -12.883  -5.242  1.00  0.00     0.053 C 
BRANCH  15  16
HETATM   16  C   UNL     1      27.576 -13.567  -6.396  1.00  0.00    -0.027 C 
HETATM   17  C   UNL     1      28.132 -14.298  -7.384  1.00  0.00    -0.027 C 
BRANCH  17  18
HETATM   18  C   UNL     1      29.591 -14.625  -7.563  1.00  0.00     0.053 C 
BRANCH  18  19
HETATM   19  C   UNL     1      29.761 -16.024  -8.107  1.00  0.00    -0.027 C 
HETATM   20  C   UNL     1      29.906 -16.392  -9.396  1.00  0.00    -0.027 C 
BRANCH  20  21
HETATM   21  C   UNL     1      29.987 -15.483 -10.598  1.00  0.00     0.053 C 
BRANCH  21  22
HETATM   22  C   UNL     1      28.621 -14.949 -10.961  1.00  0.00    -0.027 C 
HETATM   23  C   UNL     1      28.296 -13.675 -11.253  1.00  0.00    -0.031 C 
BRANCH  23  24
HETATM   24  C   UNL     1      29.227 -12.491 -11.263  1.00  0.00     0.022 C 
HETATM   25  C   UNL     1      29.270 -11.771  -9.922  1.00  0.00     0.009 C 
ENDBRANCH  23  24
ENDBRANCH  21  22
ENDBRANCH  20  21
ENDBRANCH  18  19
ENDBRANCH  17  18
ENDBRANCH  15  16
ENDBRANCH  14  15
ENDBRANCH  12  13
ENDBRANCH  11  12
ENDBRANCH   9  10
ENDBRANCH   8   9
ENDBRANCH   6   7
ENDBRANCH   5   6
ENDBRANCH   3   5
ENDBRANCH   1   3
TORSDOF 15
ENDMDL
MODEL 14
REMARK VINA RESULT:      -4.5      4.393      6.542
REMARK  15 active torsions:
REMARK  status: ('A' for Active; 'I' for Inactive)
REMARK    1  A    between atoms: O_1  and  C_23 
REMARK    2  A    between atoms: C_3  and  C_7 
REMARK    3  A    between atoms: C_3  and  C_8 
REMARK    4  A    between atoms: C_4  and  C_10 
REMARK    5  A    between atoms: C_4  and  C_11 
REMARK    6  A    between atoms: C_5  and  C_12 
REMARK    7  A    between atoms: C_5  and  C_13 
REMARK    8  A    between atoms: C_6  and  C_15 
REMARK    9  A    between atoms: C_6  and  C_16 
REMARK   10  A    between atoms: C_7  and  C_23 
REMARK   11  A    between atoms: C_9  and  C_17 
REMARK   12  A    between atoms: C_9  and  C_18 
REMARK   13  A    between atoms: C_14  and  C_19 
REMARK   14  A    between atoms: C_14  and  C_20 
REMARK   15  A    between atoms: C_21  and  C_22 
ROOT
HETATM    1  O   UNL     1      29.859 -21.187  -9.100  1.00  0.00    -0.776 OA
HETATM    2  H   UNL     1      29.513 -22.030  -9.425  1.00  0.00     0.167 HD
ENDROOT
BRANCH   1   3
HETATM    3  C   UNL     1      30.784 -20.491  -9.794  1.00  0.00     0.139 C 
HETATM    4  O   UNL     1      31.061 -20.814 -10.940  1.00  0.00    -0.650 OA
BRANCH   3   5
HETATM    5  C   UNL     1      31.468 -19.316  -9.154  1.00  0.00     0.113 C 
BRANCH   5   6
HETATM    6  C   UNL     1      30.448 -18.386  -8.486  1.00  0.00     0.037 C 
BRANCH   6   7
HETATM    7  C   UNL     1      30.294 -18.728  -7.024  1.00  0.00    -0.030 C 
HETATM    8  C   UNL     1      30.324 -17.870  -5.982  1.00  0.00    -0.027 C 
BRANCH   8   9
HETATM    9  C   UNL     1      30.518 -16.370  -6.029  1.00  0.00     0.053 C 
BRANCH   9  10
HETATM   10  C   UNL     1      31.800 -15.973  -5.341  1.00  0.00    -0.027 C 
HETATM   11  C   UNL     1      32.007 -14.827  -4.667  1.00  0.00    -0.027 C 
BRANCH  11  12
HETATM   12  C   UNL     1      30.976 -13.756  -4.427  1.00  0.00     0.053 C 
BRANCH  12  13
HETATM   13  C   UNL     1      31.273 -12.528  -5.252  1.00  0.00    -0.027 C 
HETATM   14  C   UNL     1      30.602 -12.111  -6.341  1.00  0.00    -0.027 C 
BRANCH  14  15
HETATM   15  C   UNL     1      29.441 -12.816  -6.991  1.00  0.00     0.053 C 
BRANCH  15  16
HETATM   16  C   UNL     1      29.450 -12.496  -8.469  1.00  0.00    -0.027 C 
HETATM   17  C   UNL     1      29.641 -13.344  -9.500  1.00  0.00    -0.027 C 
BRANCH  17  18
HETATM   18  C   UNL     1      29.875 -14.829  -9.424  1.00  0.00     0.053 C 
BRANCH  18  19
HETATM   19  C   UNL     1      30.984 -15.244 -10.362  1.00  0.00    -0.027 C 
HETATM   20  C   UNL     1      32.273 -15.492 -10.051  1.00  0.00    -0.027 C 
BRANCH  20  21
HETATM   21  C   UNL     1      32.898 -15.468  -8.678  1.00  0.00     0.053 C 
BRANCH  21  22
HETATM   22  C   UNL     1      33.204 -14.051  -8.252  1.00  0.00    -0.027 C 
HETATM   23  C   UNL     1      34.199 -13.641  -7.441  1.00  0.00    -0.031 C 
BRANCH  23  24
HETATM   24  C   UNL     1      35.220 -14.515  -6.760  1.00  0.00     0.022 C 
HETATM   25  C   UNL     1      35.485 -14.090  -5.322  1.00  0.00     0.009 C 
ENDBRANCH  23  24
ENDBRANCH  21  22
ENDBRANCH  20  21
ENDBRANCH  18  19
ENDBRANCH  17  18
ENDBRANCH  15  16
ENDBRANCH  14  15
ENDBRANCH  12  13
ENDBRANCH  11  12
ENDBRANCH   9  10
ENDBRANCH   8   9
ENDBRANCH   6   7
ENDBRANCH   5   6
ENDBRANCH   3   5
ENDBRANCH   1   3
TORSDOF 15
ENDMDL
MODEL 15
REMARK VINA RESULT:      -4.5     24.264     25.918
REMARK  15 active torsions:
REMARK  status: ('A' for Active; 'I' for Inactive)
REMARK    1  A    between atoms: O_1  and  C_23 
REMARK    2  A    between atoms: C_3  and  C_7 
REMARK    3  A    between atoms: C_3  and  C_8 
REMARK    4  A    between atoms: C_4  and  C_10 
REMARK    5  A    between atoms: C_4  and  C_11 
REMARK    6  A    between atoms: C_5  and  C_12 
REMARK    7  A    between atoms: C_5  and  C_13 
REMARK    8  A    between atoms: C_6  and  C_15 
REMARK    9  A    between atoms: C_6  and  C_16 
REMARK   10  A    between atoms: C_7  and  C_23 
REMARK   11  A    between atoms: C_9  and  C_17 
REMARK   12  A    between atoms: C_9  and  C_18 
REMARK   13  A    between atoms: C_14  and  C_19 
REMARK   14  A    between atoms: C_14  and  C_20 
REMARK   15  A    between atoms: C_21  and  C_22 
ROOT
HETATM    1  O   UNL     1      38.987  11.103 -19.665  1.00  0.00    -0.776 OA
HETATM    2  H   UNL     1      38.766  10.657 -18.836  1.00  0.00     0.167 HD
ENDROOT
BRANCH   1   3
HETATM    3  C   UNL     1      39.811  10.535 -20.572  1.00  0.00     0.139 C 
HETATM    4  O   UNL     1      39.435  10.373 -21.724  1.00  0.00    -0.650 OA
BRANCH   3   5
HETATM    5  C   UNL     1      41.190  10.105 -20.160  1.00  0.00     0.113 C 
BRANCH   5   6
HETATM    6  C   UNL     1      41.126   9.049 -19.051  1.00  0.00     0.037 C 
BRANCH   6   7
HETATM    7  C   UNL     1      40.298   7.865 -19.490  1.00  0.00    -0.030 C 
HETATM    8  C   UNL     1      39.283   7.289 -18.812  1.00  0.00    -0.027 C 
BRANCH   8   9
HETATM    9  C   UNL     1      38.734   7.688 -17.459  1.00  0.00     0.053 C 
BRANCH   9  10
HETATM   10  C   UNL     1      39.468   6.976 -16.351  1.00  0.00    -0.027 C 
HETATM   11  C   UNL     1      40.237   7.562 -15.415  1.00  0.00    -0.027 C 
BRANCH  11  12
HETATM   12  C   UNL     1      40.459   9.044 -15.269  1.00  0.00     0.053 C 
BRANCH  12  13
HETATM   13  C   UNL     1      40.993   9.376 -13.898  1.00  0.00    -0.027 C 
HETATM   14  C   UNL     1      40.463   9.003 -12.718  1.00  0.00    -0.027 C 
BRANCH  14  15
HETATM   15  C   UNL     1      39.195   8.215 -12.525  1.00  0.00     0.053 C 
BRANCH  15  16
HETATM   16  C   UNL     1      38.335   8.931 -11.506  1.00  0.00    -0.027 C 
HETATM   17  C   UNL     1      38.155   8.617 -10.207  1.00  0.00    -0.027 C 
BRANCH  17  18
HETATM   18  C   UNL     1      38.789   7.480  -9.450  1.00  0.00     0.053 C 
BRANCH  18  19
HETATM   19  C   UNL     1      40.287   7.659  -9.374  1.00  0.00    -0.027 C 
HETATM   20  C   UNL     1      40.964   8.667  -8.786  1.00  0.00    -0.027 C 
BRANCH  20  21
HETATM   21  C   UNL     1      40.383   9.827  -8.017  1.00  0.00     0.053 C 
BRANCH  21  22
HETATM   22  C   UNL     1      40.802   9.774  -6.566  1.00  0.00    -0.027 C 
HETATM   23  C   UNL     1      40.146   9.183  -5.549  1.00  0.00    -0.031 C 
BRANCH  23  24
HETATM   24  C   UNL     1      38.830   8.454  -5.634  1.00  0.00     0.022 C 
HETATM   25  C   UNL     1      39.004   6.961  -5.882  1.00  0.00     0.009 C 
ENDBRANCH  23  24
ENDBRANCH  21  22
ENDBRANCH  20  21
ENDBRANCH  18  19
ENDBRANCH  17  18
ENDBRANCH  15  16
ENDBRANCH  14  15
ENDBRANCH  12  13
ENDBRANCH  11  12
ENDBRANCH   9  10
ENDBRANCH   8   9
ENDBRANCH   6   7
ENDBRANCH   5   6
ENDBRANCH   3   5
ENDBRANCH   1   3
TORSDOF 15
ENDMDL
MODEL 16
REMARK VINA RESULT:      -4.5      2.534      4.774
REMARK  15 active torsions:
REMARK  status: ('A' for Active; 'I' for Inactive)
REMARK    1  A    between atoms: O_1  and  C_23 
REMARK    2  A    between atoms: C_3  and  C_7 
REMARK    3  A    between atoms: C_3  and  C_8 
REMARK    4  A    between atoms: C_4  and  C_10 
REMARK    5  A    between atoms: C_4  and  C_11 
REMARK    6  A    between atoms: C_5  and  C_12 
REMARK    7  A    between atoms: C_5  and  C_13 
REMARK    8  A    between atoms: C_6  and  C_15 
REMARK    9  A    between atoms: C_6  and  C_16 
REMARK   10  A    between atoms: C_7  and  C_23 
REMARK   11  A    between atoms: C_9  and  C_17 
REMARK   12  A    between atoms: C_9  and  C_18 
REMARK   13  A    between atoms: C_14  and  C_19 
REMARK   14  A    between atoms: C_14  and  C_20 
REMARK   15  A    between atoms: C_21  and  C_22 
ROOT
HETATM    1  O   UNL     1      32.781 -20.248 -14.246  1.00  0.00    -0.776 OA
HETATM    2  H   UNL     1      33.417 -20.161 -14.969  1.00  0.00     0.167 HD
ENDROOT
BRANCH   1   3
HETATM    3  C   UNL     1      31.475 -20.492 -14.483  1.00  0.00     0.139 C 
HETATM    4  O   UNL     1      31.112 -20.859 -15.591  1.00  0.00    -0.650 OA
BRANCH   3   5
HETATM    5  C   UNL     1      30.470 -20.315 -13.380  1.00  0.00     0.113 C 
BRANCH   5   6
HETATM    6  C   UNL     1      29.887 -18.897 -13.394  1.00  0.00     0.037 C 
BRANCH   6   7
HETATM    7  C   UNL     1      30.778 -17.948 -12.629  1.00  0.00    -0.030 C 
HETATM    8  C   UNL     1      30.761 -17.712 -11.299  1.00  0.00    -0.027 C 
BRANCH   8   9
HETATM    9  C   UNL     1      29.852 -18.337 -10.264  1.00  0.00     0.053 C 
BRANCH   9  10
HETATM   10  C   UNL     1      30.655 -18.956  -9.148  1.00  0.00    -0.027 C 
HETATM   11  C   UNL     1      30.888 -18.400  -7.945  1.00  0.00    -0.027 C 
BRANCH  11  12
HETATM   12  C   UNL     1      30.339 -17.079  -7.472  1.00  0.00     0.053 C 
BRANCH  12  13
HETATM   13  C   UNL     1      31.454 -16.112  -7.164  1.00  0.00    -0.027 C 
HETATM   14  C   UNL     1      31.853 -15.077  -7.927  1.00  0.00    -0.027 C 
BRANCH  14  15
HETATM   15  C   UNL     1      31.296 -14.702  -9.275  1.00  0.00     0.053 C 
BRANCH  15  16
HETATM   16  C   UNL     1      32.443 -14.577 -10.252  1.00  0.00    -0.027 C 
HETATM   17  C   UNL     1      32.636 -13.625 -11.187  1.00  0.00    -0.027 C 
BRANCH  17  18
HETATM   18  C   UNL     1      31.755 -12.437 -11.470  1.00  0.00     0.053 C 
BRANCH  18  19
HETATM   19  C   UNL     1      31.420 -12.360 -12.942  1.00  0.00    -0.027 C 
HETATM   20  C   UNL     1      30.733 -13.259 -13.675  1.00  0.00    -0.027 C 
BRANCH  20  21
HETATM   21  C   UNL     1      30.087 -14.531 -13.184  1.00  0.00     0.053 C 
BRANCH  21  22
HETATM   22  C   UNL     1      28.581 -14.428 -13.243  1.00  0.00    -0.027 C 
HETATM   23  C   UNL     1      27.748 -14.082 -12.242  1.00  0.00    -0.031 C 
BRANCH  23  24
HETATM   24  C   UNL     1      28.138 -13.739 -10.828  1.00  0.00     0.022 C 
HETATM   25  C   UNL     1      28.324 -12.241 -10.622  1.00  0.00     0.009 C 
ENDBRANCH  23  24
ENDBRANCH  21  22
ENDBRANCH  20  21
ENDBRANCH  18  19
ENDBRANCH  17  18
ENDBRANCH  15  16
ENDBRANCH  14  15
ENDBRANCH  12  13
ENDBRANCH  11  12
ENDBRANCH   9  10
ENDBRANCH   8   9
ENDBRANCH   6   7
ENDBRANCH   5   6
ENDBRANCH   3   5
ENDBRANCH   1   3
TORSDOF 15
ENDMDL
MODEL 17
REMARK VINA RESULT:      -4.5      4.084      6.035
REMARK  15 active torsions:
REMARK  status: ('A' for Active; 'I' for Inactive)
REMARK    1  A    between atoms: O_1  and  C_23 
REMARK    2  A    between atoms: C_3  and  C_7 
REMARK    3  A    between atoms: C_3  and  C_8 
REMARK    4  A    between atoms: C_4  and  C_10 
REMARK    5  A    between atoms: C_4  and  C_11 
REMARK    6  A    between atoms: C_5  and  C_12 
REMARK    7  A    between atoms: C_5  and  C_13 
REMARK    8  A    between atoms: C_6  and  C_15 
REMARK    9  A    between atoms: C_6  and  C_16 
REMARK   10  A    between atoms: C_7  and  C_23 
REMARK   11  A    between atoms: C_9  and  C_17 
REMARK   12  A    between atoms: C_9  and  C_18 
REMARK   13  A    between atoms: C_14  and  C_19 
REMARK   14  A    between atoms: C_14  and  C_20 
REMARK   15  A    between atoms: C_21  and  C_22 
ROOT
HETATM    1  O   UNL     1      31.744 -21.062 -19.850  1.00  0.00    -0.776 OA
HETATM    2  H   UNL     1      32.639 -20.751 -20.046  1.00  0.00     0.167 HD
ENDROOT
BRANCH   1   3
HETATM    3  C   UNL     1      30.869 -20.300 -19.159  1.00  0.00     0.139 C 
HETATM    4  O   UNL     1      29.897 -20.815 -18.627  1.00  0.00    -0.650 OA
BRANCH   3   5
HETATM    5  C   UNL     1      31.098 -18.820 -19.044  1.00  0.00     0.113 C 
BRANCH   5   6
HETATM    6  C   UNL     1      30.073 -18.180 -18.102  1.00  0.00     0.037 C 
BRANCH   6   7
HETATM    7  C   UNL     1      30.715 -17.816 -16.784  1.00  0.00    -0.030 C 
HETATM    8  C   UNL     1      30.400 -16.773 -15.988  1.00  0.00    -0.027 C 
BRANCH   8   9
HETATM    9  C   UNL     1      29.335 -15.724 -16.222  1.00  0.00     0.053 C 
BRANCH   9  10
HETATM   10  C   UNL     1      29.946 -14.348 -16.312  1.00  0.00    -0.027 C 
HETATM   11  C   UNL     1      30.040 -13.602 -17.428  1.00  0.00    -0.027 C 
BRANCH  11  12
HETATM   12  C   UNL     1      29.499 -13.982 -18.781  1.00  0.00     0.053 C 
BRANCH  12  13
HETATM   13  C   UNL     1      28.788 -12.816 -19.423  1.00  0.00    -0.027 C 
HETATM   14  C   UNL     1      29.362 -11.770 -20.046  1.00  0.00    -0.027 C 
BRANCH  14  15
HETATM   15  C   UNL     1      30.840 -11.525 -20.189  1.00  0.00     0.053 C 
BRANCH  15  16
HETATM   16  C   UNL     1      31.357 -12.356 -21.342  1.00  0.00    -0.027 C 
HETATM   17  C   UNL     1      32.363 -13.254 -21.331  1.00  0.00    -0.027 C 
BRANCH  17  18
HETATM   18  C   UNL     1      33.207 -13.660 -20.152  1.00  0.00     0.053 C 
BRANCH  18  19
HETATM   19  C   UNL     1      32.758 -14.997 -19.610  1.00  0.00    -0.027 C 
HETATM   20  C   UNL     1      33.193 -15.619 -18.496  1.00  0.00    -0.027 C 
BRANCH  20  21
HETATM   21  C   UNL     1      34.194 -15.097 -17.494  1.00  0.00     0.053 C 
BRANCH  21  22
HETATM   22  C   UNL     1      33.512 -14.716 -16.201  1.00  0.00    -0.027 C 
HETATM   23  C   UNL     1      33.427 -13.487 -15.656  1.00  0.00    -0.031 C 
BRANCH  23  24
HETATM   24  C   UNL     1      34.013 -12.216 -16.213  1.00  0.00     0.022 C 
HETATM   25  C   UNL     1      33.069 -11.513 -17.180  1.00  0.00     0.009 C 
ENDBRANCH  23  24
ENDBRANCH  21  22
ENDBRANCH  20  21
ENDBRANCH  18  19
ENDBRANCH  17  18
ENDBRANCH  15  16
ENDBRANCH  14  15
ENDBRANCH  12  13
ENDBRANCH  11  12
ENDBRANCH   9  10
ENDBRANCH   8   9
ENDBRANCH   6   7
ENDBRANCH   5   6
ENDBRANCH   3   5
ENDBRANCH   1   3
TORSDOF 15
ENDMDL
MODEL 18
REMARK VINA RESULT:      -4.5      6.121      8.641
REMARK  15 active torsions:
REMARK  status: ('A' for Active; 'I' for Inactive)
REMARK    1  A    between atoms: O_1  and  C_23 
REMARK    2  A    between atoms: C_3  and  C_7 
REMARK    3  A    between atoms: C_3  and  C_8 
REMARK    4  A    between atoms: C_4  and  C_10 
REMARK    5  A    between atoms: C_4  and  C_11 
REMARK    6  A    between atoms: C_5  and  C_12 
REMARK    7  A    between atoms: C_5  and  C_13 
REMARK    8  A    between atoms: C_6  and  C_15 
REMARK    9  A    between atoms: C_6  and  C_16 
REMARK   10  A    between atoms: C_7  and  C_23 
REMARK   11  A    between atoms: C_9  and  C_17 
REMARK   12  A    between atoms: C_9  and  C_18 
REMARK   13  A    between atoms: C_14  and  C_19 
REMARK   14  A    between atoms: C_14  and  C_20 
REMARK   15  A    between atoms: C_21  and  C_22 
ROOT
HETATM    1  O   UNL     1      32.134 -21.045  -4.822  1.00  0.00    -0.776 OA
HETATM    2  H   UNL     1      32.268 -21.879  -4.351  1.00  0.00     0.167 HD
ENDROOT
BRANCH   1   3
HETATM    3  C   UNL     1      30.922 -20.694  -5.302  1.00  0.00     0.139 C 
HETATM    4  O   UNL     1      30.697 -20.757  -6.502  1.00  0.00    -0.650 OA
BRANCH   3   5
HETATM    5  C   UNL     1      29.850 -20.231  -4.357  1.00  0.00     0.113 C 
BRANCH   5   6
HETATM    6  C   UNL     1      29.867 -18.704  -4.216  1.00  0.00     0.037 C 
BRANCH   6   7
HETATM    7  C   UNL     1      30.274 -18.303  -2.819  1.00  0.00    -0.030 C 
HETATM    8  C   UNL     1      30.221 -17.066  -2.281  1.00  0.00    -0.027 C 
BRANCH   8   9
HETATM    9  C   UNL     1      29.743 -15.792  -2.945  1.00  0.00     0.053 C 
BRANCH   9  10
HETATM   10  C   UNL     1      30.092 -14.587  -2.109  1.00  0.00    -0.027 C 
HETATM   11  C   UNL     1      31.058 -13.693  -2.385  1.00  0.00    -0.027 C 
BRANCH  11  12
HETATM   12  C   UNL     1      31.931 -13.699  -3.613  1.00  0.00     0.053 C 
BRANCH  12  13
HETATM   13  C   UNL     1      32.386 -12.303  -3.957  1.00  0.00    -0.027 C 
HETATM   14  C   UNL     1      31.933 -11.537  -4.968  1.00  0.00    -0.027 C 
BRANCH  14  15
HETATM   15  C   UNL     1      30.909 -11.939  -5.996  1.00  0.00     0.053 C 
BRANCH  15  16
HETATM   16  C   UNL     1      29.532 -11.650  -5.441  1.00  0.00    -0.027 C 
HETATM   17  C   UNL     1      28.474 -12.484  -5.372  1.00  0.00    -0.027 C 
BRANCH  17  18
HETATM   18  C   UNL     1      28.419 -13.921  -5.818  1.00  0.00     0.053 C 
BRANCH  18  19
HETATM   19  C   UNL     1      27.501 -14.076  -7.008  1.00  0.00    -0.027 C 
HETATM   20  C   UNL     1      27.814 -13.926  -8.311  1.00  0.00    -0.027 C 
BRANCH  20  21
HETATM   21  C   UNL     1      29.174 -13.623  -8.891  1.00  0.00     0.053 C 
BRANCH  21  22
HETATM   22  C   UNL     1      29.273 -12.171  -9.297  1.00  0.00    -0.027 C 
HETATM   23  C   UNL     1      29.260 -11.671 -10.548  1.00  0.00    -0.031 C 
BRANCH  23  24
HETATM   24  C   UNL     1      29.160 -12.459 -11.828  1.00  0.00     0.022 C 
HETATM   25  C   UNL     1      30.483 -12.517 -12.581  1.00  0.00     0.009 C 
ENDBRANCH  23  24
ENDBRANCH  21  22
ENDBRANCH  20  21
ENDBRANCH  18  19
ENDBRANCH  17  18
ENDBRANCH  15  16
ENDBRANCH  14  15
ENDBRANCH  12  13
ENDBRANCH  11  12
ENDBRANCH   9  10
ENDBRANCH   8   9
ENDBRANCH   6   7
ENDBRANCH   5   6
ENDBRANCH   3   5
ENDBRANCH   1   3
TORSDOF 15
ENDMDL
MODEL 19
REMARK VINA RESULT:      -4.5     24.576     26.987
REMARK  15 active torsions:
REMARK  status: ('A' for Active; 'I' for Inactive)
REMARK    1  A    between atoms: O_1  and  C_23 
REMARK    2  A    between atoms: C_3  and  C_7 
REMARK    3  A    between atoms: C_3  and  C_8 
REMARK    4  A    between atoms: C_4  and  C_10 
REMARK    5  A    between atoms: C_4  and  C_11 
REMARK    6  A    between atoms: C_5  and  C_12 
REMARK    7  A    between atoms: C_5  and  C_13 
REMARK    8  A    between atoms: C_6  and  C_15 
REMARK    9  A    between atoms: C_6  and  C_16 
REMARK   10  A    between atoms: C_7  and  C_23 
REMARK   11  A    between atoms: C_9  and  C_17 
REMARK   12  A    between atoms: C_9  and  C_18 
REMARK   13  A    between atoms: C_14  and  C_19 
REMARK   14  A    between atoms: C_14  and  C_20 
REMARK   15  A    between atoms: C_21  and  C_22 
ROOT
HETATM    1  O   UNL     1      41.177  12.293  -5.452  1.00  0.00    -0.776 OA
HETATM    2  H   UNL     1      41.569  13.033  -4.968  1.00  0.00     0.167 HD
ENDROOT
BRANCH   1   3
HETATM    3  C   UNL     1      40.375  11.397  -4.839  1.00  0.00     0.139 C 
HETATM    4  O   UNL     1      40.863  10.465  -4.214  1.00  0.00    -0.650 OA
BRANCH   3   5
HETATM    5  C   UNL     1      38.883  11.550  -4.923  1.00  0.00     0.113 C 
BRANCH   5   6
HETATM    6  C   UNL     1      38.348  10.977  -6.240  1.00  0.00     0.037 C 
BRANCH   6   7
HETATM    7  C   UNL     1      37.262   9.961  -5.977  1.00  0.00    -0.030 C 
HETATM    8  C   UNL     1      37.426   8.649  -5.704  1.00  0.00    -0.027 C 
BRANCH   8   9
HETATM    9  C   UNL     1      38.729   7.886  -5.597  1.00  0.00     0.053 C 
BRANCH   9  10
HETATM   10  C   UNL     1      39.091   7.255  -6.917  1.00  0.00    -0.027 C 
HETATM   11  C   UNL     1      39.957   7.756  -7.817  1.00  0.00    -0.027 C 
BRANCH  11  12
HETATM   12  C   UNL     1      40.769   9.013  -7.642  1.00  0.00     0.053 C 
BRANCH  12  13
HETATM   13  C   UNL     1      41.536   9.338  -8.899  1.00  0.00    -0.027 C 
HETATM   14  C   UNL     1      41.572  10.524  -9.534  1.00  0.00    -0.027 C 
BRANCH  14  15
HETATM   15  C   UNL     1      40.811  11.763  -9.144  1.00  0.00     0.053 C 
BRANCH  15  16
HETATM   16  C   UNL     1      39.798  12.066 -10.226  1.00  0.00    -0.027 C 
HETATM   17  C   UNL     1      38.620  11.451 -10.454  1.00  0.00    -0.027 C 
BRANCH  17  18
HETATM   18  C   UNL     1      38.019  10.317  -9.666  1.00  0.00     0.053 C 
BRANCH  18  19
HETATM   19  C   UNL     1      37.287   9.362 -10.580  1.00  0.00    -0.027 C 
HETATM   20  C   UNL     1      37.810   8.339 -11.287  1.00  0.00    -0.027 C 
BRANCH  20  21
HETATM   21  C   UNL     1      39.246   7.875 -11.289  1.00  0.00     0.053 C 
BRANCH  21  22
HETATM   22  C   UNL     1      40.057   8.638 -12.310  1.00  0.00    -0.027 C 
HETATM   23  C   UNL     1      40.121   8.409 -13.636  1.00  0.00    -0.031 C 
BRANCH  23  24
HETATM   24  C   UNL     1      39.405   7.322 -14.395  1.00  0.00     0.022 C 
HETATM   25  C   UNL     1      38.104   7.808 -15.021  1.00  0.00     0.009 C 
ENDBRANCH  23  24
ENDBRANCH  21  22
ENDBRANCH  20  21
ENDBRANCH  18  19
ENDBRANCH  17  18
ENDBRANCH  15  16
ENDBRANCH  14  15
ENDBRANCH  12  13
ENDBRANCH  11  12
ENDBRANCH   9  10
ENDBRANCH   8   9
ENDBRANCH   6   7
ENDBRANCH   5   6
ENDBRANCH   3   5
ENDBRANCH   1   3
TORSDOF 15
ENDMDL
MODEL 20
REMARK VINA RESULT:      -4.4      5.370      7.857
REMARK  15 active torsions:
REMARK  status: ('A' for Active; 'I' for Inactive)
REMARK    1  A    between atoms: O_1  and  C_23 
REMARK    2  A    between atoms: C_3  and  C_7 
REMARK    3  A    between atoms: C_3  and  C_8 
REMARK    4  A    between atoms: C_4  and  C_10 
REMARK    5  A    between atoms: C_4  and  C_11 
REMARK    6  A    between atoms: C_5  and  C_12 
REMARK    7  A    between atoms: C_5  and  C_13 
REMARK    8  A    between atoms: C_6  and  C_15 
REMARK    9  A    between atoms: C_6  and  C_16 
REMARK   10  A    between atoms: C_7  and  C_23 
REMARK   11  A    between atoms: C_9  and  C_17 
REMARK   12  A    between atoms: C_9  and  C_18 
REMARK   13  A    between atoms: C_14  and  C_19 
REMARK   14  A    between atoms: C_14  and  C_20 
REMARK   15  A    between atoms: C_21  and  C_22 
ROOT
HETATM    1  O   UNL     1      32.160 -20.936 -10.246  1.00  0.00    -0.776 OA
HETATM    2  H   UNL     1      32.640 -21.129  -9.429  1.00  0.00     0.167 HD
ENDROOT
BRANCH   1   3
HETATM    3  C   UNL     1      30.996 -20.252 -10.233  1.00  0.00     0.139 C 
HETATM    4  O   UNL     1      30.598 -19.701 -11.250  1.00  0.00    -0.650 OA
BRANCH   3   5
HETATM    5  C   UNL     1      30.191 -20.172  -8.968  1.00  0.00     0.113 C 
BRANCH   5   6
HETATM    6  C   UNL     1      29.554 -18.786  -8.811  1.00  0.00     0.037 C 
BRANCH   6   7
HETATM    7  C   UNL     1      30.562 -17.794  -8.284  1.00  0.00    -0.030 C 
HETATM    8  C   UNL     1      30.969 -17.651  -7.004  1.00  0.00    -0.027 C 
BRANCH   8   9
HETATM    9  C   UNL     1      30.515 -18.445  -5.799  1.00  0.00     0.053 C 
BRANCH   9  10
HETATM   10  C   UNL     1      29.791 -17.562  -4.815  1.00  0.00    -0.027 C 
HETATM   11  C   UNL     1      30.372 -16.785  -3.882  1.00  0.00    -0.027 C 
BRANCH  11  12
HETATM   12  C   UNL     1      31.856 -16.613  -3.688  1.00  0.00     0.053 C 
BRANCH  12  13
HETATM   13  C   UNL     1      32.369 -15.436  -4.479  1.00  0.00    -0.027 C 
HETATM   14  C   UNL     1      32.319 -14.141  -4.116  1.00  0.00    -0.027 C 
BRANCH  14  15
HETATM   15  C   UNL     1      31.692 -13.596  -2.860  1.00  0.00     0.053 C 
BRANCH  15  16
HETATM   16  C   UNL     1      30.816 -12.420  -3.231  1.00  0.00    -0.027 C 
HETATM   17  C   UNL     1      29.518 -12.436  -3.595  1.00  0.00    -0.027 C 
BRANCH  17  18
HETATM   18  C   UNL     1      28.618 -13.639  -3.701  1.00  0.00     0.053 C 
BRANCH  18  19
HETATM   19  C   UNL     1      27.781 -13.570  -4.957  1.00  0.00    -0.027 C 
HETATM   20  C   UNL     1      28.172 -13.835  -6.220  1.00  0.00    -0.027 C 
BRANCH  20  21
HETATM   21  C   UNL     1      29.528 -14.318  -6.670  1.00  0.00     0.053 C 
BRANCH  21  22
HETATM   22  C   UNL     1      30.402 -13.158  -7.085  1.00  0.00    -0.027 C 
HETATM   23  C   UNL     1      31.596 -13.218  -7.707  1.00  0.00    -0.031 C 
BRANCH  23  24
HETATM   24  C   UNL     1      32.335 -14.467  -8.111  1.00  0.00     0.022 C 
HETATM   25  C   UNL     1      33.822 -14.395  -7.788  1.00  0.00     0.009 C 
ENDBRANCH  23  24
ENDBRANCH  21  22
ENDBRANCH  20  21
ENDBRANCH  18  19
ENDBRANCH  17  18
ENDBRANCH  15  16
ENDBRANCH  14  15
ENDBRANCH  12  13
ENDBRANCH  11  12
ENDBRANCH   9  10
ENDBRANCH   8   9
ENDBRANCH   6   7
ENDBRANCH   5   6
ENDBRANCH   3   5
ENDBRANCH   1   3
TORSDOF 15
ENDMDL
