MODEL 1
REMARK VINA RESULT:      -5.1      0.000      0.000
REMARK  15 active torsions:
REMARK  status: ('A' for Active; 'I' for Inactive)
REMARK    1  A    between atoms: O_1  and  C_22 
REMARK    2  A    between atoms: C_3  and  C_4 
REMARK    3  A    between atoms: C_3  and  C_5 
REMARK    4  A    between atoms: C_4  and  C_6 
REMARK    5  A    between atoms: C_5  and  C_7 
REMARK    6  A    between atoms: C_9  and  C_10 
REMARK    7  A    between atoms: C_9  and  C_13 
REMARK    8  A    between atoms: C_10  and  C_14 
REMARK    9  A    between atoms: C_11  and  C_12 
REMARK   10  A    between atoms: C_12  and  C_16 
REMARK   11  A    between atoms: C_13  and  C_22 
REMARK   12  A    between atoms: C_15  and  C_17 
REMARK   13  A    between atoms: C_15  and  C_20 
REMARK   14  A    between atoms: C_18  and  C_19 
REMARK   15  A    between atoms: C_18  and  C_21 
ROOT
HETATM    1  O   UNL     1      29.837 -21.161 -13.899  1.00  0.00    -0.776 OA
HETATM    2  H   UNL     1      30.440 -21.648 -14.477  1.00  0.00     0.167 HD
ENDROOT
BRANCH   1   3
HETATM    3  C   UNL     1      30.058 -19.866 -13.584  1.00  0.00     0.139 C 
HETATM    4  O   UNL     1      29.554 -18.978 -14.257  1.00  0.00    -0.650 OA
BRANCH   3   5
HETATM    5  C   UNL     1      30.934 -19.521 -12.412  1.00  0.00     0.110 C 
BRANCH   5   6
HETATM    6  C   UNL     1      30.300 -18.460 -11.501  1.00  0.00     0.014 C 
BRANCH   6   7
HETATM    7  C   UNL     1      30.699 -18.628 -10.030  1.00  0.00     0.027 C 
BRANCH   7   8
HETATM    8  C   UNL     1      30.375 -20.028  -9.572  1.00  0.00    -0.030 C 
HETATM    9  C   UNL     1      30.417 -20.458  -8.297  1.00  0.00    -0.027 C 
BRANCH   9  10
HETATM   10  C   UNL     1      30.773 -19.611  -7.101  1.00  0.00     0.053 C 
BRANCH  10  11
HETATM   11  C   UNL     1      30.921 -20.457  -5.855  1.00  0.00    -0.027 C 
HETATM   12  C   UNL     1      30.536 -20.145  -4.601  1.00  0.00    -0.027 C 
BRANCH  12  13
HETATM   13  C   UNL     1      29.846 -18.883  -4.151  1.00  0.00     0.053 C 
BRANCH  13  14
HETATM   14  C   UNL     1      30.840 -17.747  -4.083  1.00  0.00    -0.027 C 
HETATM   15  C   UNL     1      30.723 -16.576  -4.742  1.00  0.00    -0.027 C 
BRANCH  15  16
HETATM   16  C   UNL     1      29.586 -16.226  -5.666  1.00  0.00     0.053 C 
BRANCH  16  17
HETATM   17  C   UNL     1      30.040 -16.167  -7.103  1.00  0.00    -0.027 C 
HETATM   18  C   UNL     1      29.588 -15.268  -7.995  1.00  0.00    -0.030 C 
BRANCH  18  19
HETATM   19  C   UNL     1      28.563 -14.203  -7.699  1.00  0.00     0.027 C 
BRANCH  19  20
HETATM   20  C   UNL     1      29.186 -12.818  -7.902  1.00  0.00     0.004 C 
BRANCH  20  21
HETATM   21  C   UNL     1      29.993 -12.387  -6.673  1.00  0.00    -0.000 C 
BRANCH  21  22
HETATM   22  C   UNL     1      29.063 -11.974  -5.526  1.00  0.00    -0.005 C 
HETATM   23  C   UNL     1      29.335 -12.800  -4.272  1.00  0.00     0.005 C 
ENDBRANCH  21  22
ENDBRANCH  20  21
ENDBRANCH  19  20
ENDBRANCH  18  19
ENDBRANCH  16  17
ENDBRANCH  15  16
ENDBRANCH  13  14
ENDBRANCH  12  13
ENDBRANCH  10  11
ENDBRANCH   9  10
ENDBRANCH   7   8
ENDBRANCH   6   7
ENDBRANCH   5   6
ENDBRANCH   3   5
ENDBRANCH   1   3
TORSDOF 15
ENDMDL
MODEL 2
REMARK VINA RESULT:      -5.1     26.578     28.763
REMARK  15 active torsions:
REMARK  status: ('A' for Active; 'I' for Inactive)
REMARK    1  A    between atoms: O_1  and  C_22 
REMARK    2  A    between atoms: C_3  and  C_4 
REMARK    3  A    between atoms: C_3  and  C_5 
REMARK    4  A    between atoms: C_4  and  C_6 
REMARK    5  A    between atoms: C_5  and  C_7 
REMARK    6  A    between atoms: C_9  and  C_10 
REMARK    7  A    between atoms: C_9  and  C_13 
REMARK    8  A    between atoms: C_10  and  C_14 
REMARK    9  A    between atoms: C_11  and  C_12 
REMARK   10  A    between atoms: C_12  and  C_16 
REMARK   11  A    between atoms: C_13  and  C_22 
REMARK   12  A    between atoms: C_15  and  C_17 
REMARK   13  A    between atoms: C_15  and  C_20 
REMARK   14  A    between atoms: C_18  and  C_19 
REMARK   15  A    between atoms: C_18  and  C_21 
ROOT
HETATM    1  O   UNL     1      40.661   8.221  -4.091  1.00  0.00    -0.776 OA
HETATM    2  H   UNL     1      40.783   8.763  -4.883  1.00  0.00     0.167 HD
ENDROOT
BRANCH   1   3
HETATM    3  C   UNL     1      39.577   7.431  -3.939  1.00  0.00     0.139 C 
HETATM    4  O   UNL     1      39.380   6.857  -2.878  1.00  0.00    -0.650 OA
BRANCH   3   5
HETATM    5  C   UNL     1      38.619   7.249  -5.084  1.00  0.00     0.110 C 
BRANCH   5   6
HETATM    6  C   UNL     1      37.754   8.494  -5.325  1.00  0.00     0.014 C 
BRANCH   6   7
HETATM    7  C   UNL     1      37.762   8.945  -6.792  1.00  0.00     0.027 C 
BRANCH   7   8
HETATM    8  C   UNL     1      38.434  10.290  -6.907  1.00  0.00    -0.030 C 
HETATM    9  C   UNL     1      39.754  10.485  -7.087  1.00  0.00    -0.027 C 
BRANCH   9  10
HETATM   10  C   UNL     1      40.787   9.397  -7.229  1.00  0.00     0.053 C 
BRANCH  10  11
HETATM   11  C   UNL     1      41.390   9.390  -8.616  1.00  0.00    -0.027 C 
HETATM   12  C   UNL     1      40.951   8.713  -9.697  1.00  0.00    -0.027 C 
BRANCH  12  13
HETATM   13  C   UNL     1      39.742   7.817  -9.778  1.00  0.00     0.053 C 
BRANCH  13  14
HETATM   14  C   UNL     1      38.691   8.445 -10.662  1.00  0.00    -0.027 C 
HETATM   15  C   UNL     1      38.560   8.222 -11.986  1.00  0.00    -0.027 C 
BRANCH  15  16
HETATM   16  C   UNL     1      39.457   7.321 -12.793  1.00  0.00     0.053 C 
BRANCH  16  17
HETATM   17  C   UNL     1      40.357   8.112 -13.708  1.00  0.00    -0.027 C 
HETATM   18  C   UNL     1      39.959   8.640 -14.879  1.00  0.00    -0.030 C 
BRANCH  18  19
HETATM   19  C   UNL     1      38.571   8.510 -15.453  1.00  0.00     0.027 C 
BRANCH  19  20
HETATM   20  C   UNL     1      38.659   8.095 -16.925  1.00  0.00     0.004 C 
BRANCH  20  21
HETATM   21  C   UNL     1      40.114   8.057 -17.405  1.00  0.00    -0.000 C 
BRANCH  21  22
HETATM   22  C   UNL     1      40.183   7.970 -18.934  1.00  0.00    -0.005 C 
HETATM   23  C   UNL     1      39.000   7.186 -19.495  1.00  0.00     0.005 C 
ENDBRANCH  21  22
ENDBRANCH  20  21
ENDBRANCH  19  20
ENDBRANCH  18  19
ENDBRANCH  16  17
ENDBRANCH  15  16
ENDBRANCH  13  14
ENDBRANCH  12  13
ENDBRANCH  10  11
ENDBRANCH   9  10
ENDBRANCH   7   8
ENDBRANCH   6   7
ENDBRANCH   5   6
ENDBRANCH   3   5
ENDBRANCH   1   3
TORSDOF 15
ENDMDL
MODEL 3
REMARK VINA RESULT:      -5.1     28.248     30.528
REMARK  15 active torsions:
REMARK  status: ('A' for Active; 'I' for Inactive)
REMARK    1  A    between atoms: O_1  and  C_22 
REMARK    2  A    between atoms: C_3  and  C_4 
REMARK    3  A    between atoms: C_3  and  C_5 
REMARK    4  A    between atoms: C_4  and  C_6 
REMARK    5  A    between atoms: C_5  and  C_7 
REMARK    6  A    between atoms: C_9  and  C_10 
REMARK    7  A    between atoms: C_9  and  C_13 
REMARK    8  A    between atoms: C_10  and  C_14 
REMARK    9  A    between atoms: C_11  and  C_12 
REMARK   10  A    between atoms: C_12  and  C_16 
REMARK   11  A    between atoms: C_13  and  C_22 
REMARK   12  A    between atoms: C_15  and  C_17 
REMARK   13  A    between atoms: C_15  and  C_20 
REMARK   14  A    between atoms: C_18  and  C_19 
REMARK   15  A    between atoms: C_18  and  C_21 
ROOT
HETATM    1  O   UNL     1      41.142  12.045 -20.847  1.00  0.00    -0.776 OA
HETATM    2  H   UNL     1      41.764  11.700 -20.191  1.00  0.00     0.167 HD
ENDROOT
BRANCH   1   3
HETATM    3  C   UNL     1      39.995  11.395 -21.138  1.00  0.00     0.139 C 
HETATM    4  O   UNL     1      39.971  10.567 -22.037  1.00  0.00    -0.650 OA
BRANCH   3   5
HETATM    5  C   UNL     1      38.745  11.701 -20.360  1.00  0.00     0.110 C 
BRANCH   5   6
HETATM    6  C   UNL     1      37.585  10.764 -20.727  1.00  0.00     0.014 C 
BRANCH   6   7
HETATM    7  C   UNL     1      37.399   9.628 -19.713  1.00  0.00     0.027 C 
BRANCH   7   8
HETATM    8  C   UNL     1      37.587   8.299 -20.401  1.00  0.00    -0.030 C 
HETATM    9  C   UNL     1      38.424   7.326 -19.994  1.00  0.00    -0.027 C 
BRANCH   9  10
HETATM   10  C   UNL     1      39.303   7.383 -18.770  1.00  0.00     0.053 C 
BRANCH  10  11
HETATM   11  C   UNL     1      40.672   7.933 -19.104  1.00  0.00    -0.027 C 
HETATM   12  C   UNL     1      41.225   9.081 -18.662  1.00  0.00    -0.027 C 
BRANCH  12  13
HETATM   13  C   UNL     1      40.611  10.078 -17.712  1.00  0.00     0.053 C 
BRANCH  13  14
HETATM   14  C   UNL     1      41.692  10.921 -17.077  1.00  0.00    -0.027 C 
HETATM   15  C   UNL     1      41.790  11.187 -15.759  1.00  0.00    -0.027 C 
BRANCH  15  16
HETATM   16  C   UNL     1      40.823  10.696 -14.714  1.00  0.00     0.053 C 
BRANCH  16  17
HETATM   17  C   UNL     1      41.394   9.541 -13.931  1.00  0.00    -0.027 C 
HETATM   18  C   UNL     1      41.035   8.258 -14.118  1.00  0.00    -0.030 C 
BRANCH  18  19
HETATM   19  C   UNL     1      40.009   7.789 -15.118  1.00  0.00     0.027 C 
BRANCH  19  20
HETATM   20  C   UNL     1      38.605   7.946 -14.527  1.00  0.00     0.004 C 
BRANCH  20  21
HETATM   21  C   UNL     1      37.567   8.205 -15.624  1.00  0.00    -0.000 C 
BRANCH  21  22
HETATM   22  C   UNL     1      37.327   9.709 -15.805  1.00  0.00    -0.005 C 
HETATM   23  C   UNL     1      37.170  10.407 -14.457  1.00  0.00     0.005 C 
ENDBRANCH  21  22
ENDBRANCH  20  21
ENDBRANCH  19  20
ENDBRANCH  18  19
ENDBRANCH  16  17
ENDBRANCH  15  16
ENDBRANCH  13  14
ENDBRANCH  12  13
ENDBRANCH  10  11
ENDBRANCH   9  10
ENDBRANCH   7   8
ENDBRANCH   6   7
ENDBRANCH   5   6
ENDBRANCH   3   5
ENDBRANCH   1   3
TORSDOF 15
ENDMDL
MODEL 4
REMARK VINA RESULT:      -5.0      5.260      6.864
REMARK  15 active torsions:
REMARK  status: ('A' for Active; 'I' for Inactive)
REMARK    1  A    between atoms: O_1  and  C_22 
REMARK    2  A    between atoms: C_3  and  C_4 
REMARK    3  A    between atoms: C_3  and  C_5 
REMARK    4  A    between atoms: C_4  and  C_6 
REMARK    5  A    between atoms: C_5  and  C_7 
REMARK    6  A    between atoms: C_9  and  C_10 
REMARK    7  A    between atoms: C_9  and  C_13 
REMARK    8  A    between atoms: C_10  and  C_14 
REMARK    9  A    between atoms: C_11  and  C_12 
REMARK   10  A    between atoms: C_12  and  C_16 
REMARK   11  A    between atoms: C_13  and  C_22 
REMARK   12  A    between atoms: C_15  and  C_17 
REMARK   13  A    between atoms: C_15  and  C_20 
REMARK   14  A    between atoms: C_18  and  C_19 
REMARK   15  A    between atoms: C_18  and  C_21 
ROOT
HETATM    1  O   UNL     1      32.804 -20.289 -14.190  1.00  0.00    -0.776 OA
HETATM    2  H   UNL     1      33.505 -20.167 -14.846  1.00  0.00     0.167 HD
ENDROOT
BRANCH   1   3
HETATM    3  C   UNL     1      31.527 -20.524 -14.559  1.00  0.00     0.139 C 
HETATM    4  O   UNL     1      31.277 -20.894 -15.697  1.00  0.00    -0.650 OA
BRANCH   3   5
HETATM    5  C   UNL     1      30.413 -20.317 -13.570  1.00  0.00     0.110 C 
BRANCH   5   6
HETATM    6  C   UNL     1      29.703 -18.969 -13.764  1.00  0.00     0.014 C 
BRANCH   6   7
HETATM    7  C   UNL     1      30.315 -17.850 -12.911  1.00  0.00     0.027 C 
BRANCH   7   8
HETATM    8  C   UNL     1      31.186 -16.973 -13.774  1.00  0.00    -0.030 C 
HETATM    9  C   UNL     1      31.899 -15.917 -13.338  1.00  0.00    -0.027 C 
BRANCH   9  10
HETATM   10  C   UNL     1      31.971 -15.441 -11.909  1.00  0.00     0.053 C 
BRANCH  10  11
HETATM   11  C   UNL     1      33.090 -14.440 -11.720  1.00  0.00    -0.027 C 
HETATM   12  C   UNL     1      32.990 -13.096 -11.687  1.00  0.00    -0.027 C 
BRANCH  12  13
HETATM   13  C   UNL     1      31.731 -12.276 -11.811  1.00  0.00     0.053 C 
BRANCH  13  14
HETATM   14  C   UNL     1      31.183 -11.960 -10.439  1.00  0.00    -0.027 C 
HETATM   15  C   UNL     1      29.875 -11.816 -10.143  1.00  0.00    -0.027 C 
BRANCH  15  16
HETATM   16  C   UNL     1      28.755 -11.932 -11.144  1.00  0.00     0.053 C 
BRANCH  16  17
HETATM   17  C   UNL     1      28.086 -13.282 -11.070  1.00  0.00    -0.027 C 
HETATM   18  C   UNL     1      28.144 -14.202 -12.049  1.00  0.00    -0.030 C 
BRANCH  18  19
HETATM   19  C   UNL     1      28.869 -14.019 -13.359  1.00  0.00     0.027 C 
BRANCH  19  20
HETATM   20  C   UNL     1      27.868 -13.632 -14.452  1.00  0.00     0.004 C 
BRANCH  20  21
HETATM   21  C   UNL     1      28.483 -12.635 -15.440  1.00  0.00    -0.000 C 
BRANCH  21  22
HETATM   22  C   UNL     1      29.511 -11.737 -14.741  1.00  0.00    -0.005 C 
HETATM   23  C   UNL     1      30.874 -11.829 -15.421  1.00  0.00     0.005 C 
ENDBRANCH  21  22
ENDBRANCH  20  21
ENDBRANCH  19  20
ENDBRANCH  18  19
ENDBRANCH  16  17
ENDBRANCH  15  16
ENDBRANCH  13  14
ENDBRANCH  12  13
ENDBRANCH  10  11
ENDBRANCH   9  10
ENDBRANCH   7   8
ENDBRANCH   6   7
ENDBRANCH   5   6
ENDBRANCH   3   5
ENDBRANCH   1   3
TORSDOF 15
ENDMDL
MODEL 5
REMARK VINA RESULT:      -5.0     26.161     28.230
REMARK  15 active torsions:
REMARK  status: ('A' for Active; 'I' for Inactive)
REMARK    1  A    between atoms: O_1  and  C_22 
REMARK    2  A    between atoms: C_3  and  C_4 
REMARK    3  A    between atoms: C_3  and  C_5 
REMARK    4  A    between atoms: C_4  and  C_6 
REMARK    5  A    between atoms: C_5  and  C_7 
REMARK    6  A    between atoms: C_9  and  C_10 
REMARK    7  A    between atoms: C_9  and  C_13 
REMARK    8  A    between atoms: C_10  and  C_14 
REMARK    9  A    between atoms: C_11  and  C_12 
REMARK   10  A    between atoms: C_12  and  C_16 
REMARK   11  A    between atoms: C_13  and  C_22 
REMARK   12  A    between atoms: C_15  and  C_17 
REMARK   13  A    between atoms: C_15  and  C_20 
REMARK   14  A    between atoms: C_18  and  C_19 
REMARK   15  A    between atoms: C_18  and  C_21 
ROOT
HETATM    1  O   UNL     1      38.856   6.043 -15.213  1.00  0.00    -0.776 OA
HETATM    2  H   UNL     1      38.979   5.097 -15.369  1.00  0.00     0.167 HD
ENDROOT
BRANCH   1   3
HETATM    3  C   UNL     1      39.439   6.969 -16.004  1.00  0.00     0.139 C 
HETATM    4  O   UNL     1      39.454   6.816 -17.217  1.00  0.00    -0.650 OA
BRANCH   3   5
HETATM    5  C   UNL     1      40.081   8.182 -15.388  1.00  0.00     0.110 C 
BRANCH   5   6
HETATM    6  C   UNL     1      40.616   7.906 -13.976  1.00  0.00     0.014 C 
BRANCH   6   7
HETATM    7  C   UNL     1      39.888   8.719 -12.898  1.00  0.00     0.027 C 
BRANCH   7   8
HETATM    8  C   UNL     1      39.045   7.800 -12.050  1.00  0.00    -0.030 C 
HETATM    9  C   UNL     1      38.196   8.196 -11.083  1.00  0.00    -0.027 C 
BRANCH   9  10
HETATM   10  C   UNL     1      37.921   9.626 -10.693  1.00  0.00     0.053 C 
BRANCH  10  11
HETATM   11  C   UNL     1      37.473   9.725  -9.252  1.00  0.00    -0.027 C 
HETATM   12  C   UNL     1      38.165   9.366  -8.151  1.00  0.00    -0.027 C 
BRANCH  12  13
HETATM   13  C   UNL     1      39.560   8.798  -8.102  1.00  0.00     0.053 C 
BRANCH  13  14
HETATM   14  C   UNL     1      39.511   7.341  -7.705  1.00  0.00    -0.027 C 
HETATM   15  C   UNL     1      39.344   6.887  -6.446  1.00  0.00    -0.027 C 
BRANCH  15  16
HETATM   16  C   UNL     1      39.197   7.768  -5.234  1.00  0.00     0.053 C 
BRANCH  16  17
HETATM   17  C   UNL     1      40.475   7.828  -4.435  1.00  0.00    -0.027 C 
HETATM   18  C   UNL     1      41.287   8.899  -4.398  1.00  0.00    -0.030 C 
BRANCH  18  19
HETATM   19  C   UNL     1      41.050  10.184  -5.151  1.00  0.00     0.027 C 
BRANCH  19  20
HETATM   20  C   UNL     1      41.859  11.314  -4.506  1.00  0.00     0.004 C 
BRANCH  20  21
HETATM   21  C   UNL     1      42.267  10.957  -3.073  1.00  0.00    -0.000 C 
BRANCH  21  22
HETATM   22  C   UNL     1      41.489  11.801  -2.056  1.00  0.00    -0.005 C 
HETATM   23  C   UNL     1      42.113  11.704  -0.668  1.00  0.00     0.005 C 
ENDBRANCH  21  22
ENDBRANCH  20  21
ENDBRANCH  19  20
ENDBRANCH  18  19
ENDBRANCH  16  17
ENDBRANCH  15  16
ENDBRANCH  13  14
ENDBRANCH  12  13
ENDBRANCH  10  11
ENDBRANCH   9  10
ENDBRANCH   7   8
ENDBRANCH   6   7
ENDBRANCH   5   6
ENDBRANCH   3   5
ENDBRANCH   1   3
TORSDOF 15
ENDMDL
MODEL 6
REMARK VINA RESULT:      -5.0     27.061     29.314
REMARK  15 active torsions:
REMARK  status: ('A' for Active; 'I' for Inactive)
REMARK    1  A    between atoms: O_1  and  C_22 
REMARK    2  A    between atoms: C_3  and  C_4 
REMARK    3  A    between atoms: C_3  and  C_5 
REMARK    4  A    between atoms: C_4  and  C_6 
REMARK    5  A    between atoms: C_5  and  C_7 
REMARK    6  A    between atoms: C_9  and  C_10 
REMARK    7  A    between atoms: C_9  and  C_13 
REMARK    8  A    between atoms: C_10  and  C_14 
REMARK    9  A    between atoms: C_11  and  C_12 
REMARK   10  A    between atoms: C_12  and  C_16 
REMARK   11  A    between atoms: C_13  and  C_22 
REMARK   12  A    between atoms: C_15  and  C_17 
REMARK   13  A    between atoms: C_15  and  C_20 
REMARK   14  A    between atoms: C_18  and  C_19 
REMARK   15  A    between atoms: C_18  and  C_21 
ROOT
HETATM    1  O   UNL     1      41.791  13.069 -14.056  1.00  0.00    -0.776 OA
HETATM    2  H   UNL     1      41.786  13.555 -13.219  1.00  0.00     0.167 HD
ENDROOT
BRANCH   1   3
HETATM    3  C   UNL     1      42.214  11.789 -14.123  1.00  0.00     0.139 C 
HETATM    4  O   UNL     1      43.380  11.515 -13.879  1.00  0.00    -0.650 OA
BRANCH   3   5
HETATM    5  C   UNL     1      41.249  10.702 -14.511  1.00  0.00     0.110 C 
BRANCH   5   6
HETATM    6  C   UNL     1      41.303   9.504 -13.553  1.00  0.00     0.014 C 
BRANCH   6   7
HETATM    7  C   UNL     1      41.166   8.159 -14.279  1.00  0.00     0.027 C 
BRANCH   7   8
HETATM    8  C   UNL     1      39.869   7.498 -13.883  1.00  0.00    -0.030 C 
HETATM    9  C   UNL     1      38.941   7.035 -14.741  1.00  0.00    -0.027 C 
BRANCH   9  10
HETATM   10  C   UNL     1      39.043   7.072 -16.245  1.00  0.00     0.053 C 
BRANCH  10  11
HETATM   11  C   UNL     1      38.997   8.493 -16.762  1.00  0.00    -0.027 C 
HETATM   12  C   UNL     1      38.104   9.453 -16.447  1.00  0.00    -0.027 C 
BRANCH  12  13
HETATM   13  C   UNL     1      36.949   9.336 -15.484  1.00  0.00     0.053 C 
BRANCH  13  14
HETATM   14  C   UNL     1      36.779  10.629 -14.722  1.00  0.00    -0.027 C 
HETATM   15  C   UNL     1      37.178  10.835 -13.450  1.00  0.00    -0.027 C 
BRANCH  15  16
HETATM   16  C   UNL     1      37.843   9.796 -12.585  1.00  0.00     0.053 C 
BRANCH  16  17
HETATM   17  C   UNL     1      37.092   9.590 -11.293  1.00  0.00    -0.027 C 
HETATM   18  C   UNL     1      37.389   8.632 -10.398  1.00  0.00    -0.030 C 
BRANCH  18  19
HETATM   19  C   UNL     1      38.498   7.622 -10.555  1.00  0.00     0.027 C 
BRANCH  19  20
HETATM   20  C   UNL     1      38.999   7.190  -9.173  1.00  0.00     0.004 C 
BRANCH  20  21
HETATM   21  C   UNL     1      40.204   8.028  -8.732  1.00  0.00    -0.000 C 
BRANCH  21  22
HETATM   22  C   UNL     1      40.925   8.628  -9.945  1.00  0.00    -0.005 C 
HETATM   23  C   UNL     1      41.092  10.137  -9.796  1.00  0.00     0.005 C 
ENDBRANCH  21  22
ENDBRANCH  20  21
ENDBRANCH  19  20
ENDBRANCH  18  19
ENDBRANCH  16  17
ENDBRANCH  15  16
ENDBRANCH  13  14
ENDBRANCH  12  13
ENDBRANCH  10  11
ENDBRANCH   9  10
ENDBRANCH   7   8
ENDBRANCH   6   7
ENDBRANCH   5   6
ENDBRANCH   3   5
ENDBRANCH   1   3
TORSDOF 15
ENDMDL
MODEL 7
REMARK VINA RESULT:      -5.0      3.039      5.968
REMARK  15 active torsions:
REMARK  status: ('A' for Active; 'I' for Inactive)
REMARK    1  A    between atoms: O_1  and  C_22 
REMARK    2  A    between atoms: C_3  and  C_4 
REMARK    3  A    between atoms: C_3  and  C_5 
REMARK    4  A    between atoms: C_4  and  C_6 
REMARK    5  A    between atoms: C_5  and  C_7 
REMARK    6  A    between atoms: C_9  and  C_10 
REMARK    7  A    between atoms: C_9  and  C_13 
REMARK    8  A    between atoms: C_10  and  C_14 
REMARK    9  A    between atoms: C_11  and  C_12 
REMARK   10  A    between atoms: C_12  and  C_16 
REMARK   11  A    between atoms: C_13  and  C_22 
REMARK   12  A    between atoms: C_15  and  C_17 
REMARK   13  A    between atoms: C_15  and  C_20 
REMARK   14  A    between atoms: C_18  and  C_19 
REMARK   15  A    between atoms: C_18  and  C_21 
ROOT
HETATM    1  O   UNL     1      32.775 -20.283  -9.313  1.00  0.00    -0.776 OA
HETATM    2  H   UNL     1      33.467 -20.879  -9.630  1.00  0.00     0.167 HD
ENDROOT
BRANCH   1   3
HETATM    3  C   UNL     1      31.480 -20.470  -9.644  1.00  0.00     0.139 C 
HETATM    4  O   UNL     1      31.189 -20.946 -10.732  1.00  0.00    -0.650 OA
BRANCH   3   5
HETATM    5  C   UNL     1      30.396 -20.081  -8.677  1.00  0.00     0.110 C 
BRANCH   5   6
HETATM    6  C   UNL     1      30.644 -18.704  -8.045  1.00  0.00     0.014 C 
BRANCH   6   7
HETATM    7  C   UNL     1      30.001 -17.563  -8.843  1.00  0.00     0.027 C 
BRANCH   7   8
HETATM    8  C   UNL     1      31.049 -16.878  -9.684  1.00  0.00    -0.030 C 
HETATM    9  C   UNL     1      31.135 -16.947 -11.026  1.00  0.00    -0.027 C 
BRANCH   9  10
HETATM   10  C   UNL     1      30.188 -17.700 -11.925  1.00  0.00     0.053 C 
BRANCH  10  11
HETATM   11  C   UNL     1      30.709 -17.760 -13.344  1.00  0.00    -0.027 C 
HETATM   12  C   UNL     1      30.371 -16.960 -14.376  1.00  0.00    -0.027 C 
BRANCH  12  13
HETATM   13  C   UNL     1      29.405 -15.803 -14.350  1.00  0.00     0.053 C 
BRANCH  13  14
HETATM   14  C   UNL     1      30.089 -14.571 -13.805  1.00  0.00    -0.027 C 
HETATM   15  C   UNL     1      29.552 -13.722 -12.905  1.00  0.00    -0.027 C 
BRANCH  15  16
HETATM   16  C   UNL     1      28.174 -13.864 -12.315  1.00  0.00     0.053 C 
BRANCH  16  17
HETATM   17  C   UNL     1      28.195 -14.697 -11.057  1.00  0.00    -0.027 C 
HETATM   18  C   UNL     1      28.484 -14.207  -9.838  1.00  0.00    -0.030 C 
BRANCH  18  19
HETATM   19  C   UNL     1      28.839 -12.770  -9.551  1.00  0.00     0.027 C 
BRANCH  19  20
HETATM   20  C   UNL     1      29.636 -12.688  -8.245  1.00  0.00     0.004 C 
BRANCH  20  21
HETATM   21  C   UNL     1      31.134 -12.520  -8.518  1.00  0.00    -0.000 C 
BRANCH  21  22
HETATM   22  C   UNL     1      31.387 -12.196  -9.995  1.00  0.00    -0.005 C 
HETATM   23  C   UNL     1      32.367 -13.187 -10.616  1.00  0.00     0.005 C 
ENDBRANCH  21  22
ENDBRANCH  20  21
ENDBRANCH  19  20
ENDBRANCH  18  19
ENDBRANCH  16  17
ENDBRANCH  15  16
ENDBRANCH  13  14
ENDBRANCH  12  13
ENDBRANCH  10  11
ENDBRANCH   9  10
ENDBRANCH   7   8
ENDBRANCH   6   7
ENDBRANCH   5   6
ENDBRANCH   3   5
ENDBRANCH   1   3
TORSDOF 15
ENDMDL
MODEL 8
REMARK VINA RESULT:      -5.0      5.646      8.951
REMARK  15 active torsions:
REMARK  status: ('A' for Active; 'I' for Inactive)
REMARK    1  A    between atoms: O_1  and  C_22 
REMARK    2  A    between atoms: C_3  and  C_4 
REMARK    3  A    between atoms: C_3  and  C_5 
REMARK    4  A    between atoms: C_4  and  C_6 
REMARK    5  A    between atoms: C_5  and  C_7 
REMARK    6  A    between atoms: C_9  and  C_10 
REMARK    7  A    between atoms: C_9  and  C_13 
REMARK    8  A    between atoms: C_10  and  C_14 
REMARK    9  A    between atoms: C_11  and  C_12 
REMARK   10  A    between atoms: C_12  and  C_16 
REMARK   11  A    between atoms: C_13  and  C_22 
REMARK   12  A    between atoms: C_15  and  C_17 
REMARK   13  A    between atoms: C_15  and  C_20 
REMARK   14  A    between atoms: C_18  and  C_19 
REMARK   15  A    between atoms: C_18  and  C_21 
ROOT
HETATM    1  O   UNL     1      31.863 -21.060 -14.935  1.00  0.00    -0.776 OA
HETATM    2  H   UNL     1      32.438 -20.704 -15.628  1.00  0.00     0.167 HD
ENDROOT
BRANCH   1   3
HETATM    3  C   UNL     1      30.893 -20.309 -14.373  1.00  0.00     0.139 C 
HETATM    4  O   UNL     1      29.950 -20.847 -13.811  1.00  0.00    -0.650 OA
BRANCH   3   5
HETATM    5  C   UNL     1      30.969 -18.809 -14.450  1.00  0.00     0.110 C 
BRANCH   5   6
HETATM    6  C   UNL     1      29.859 -18.125 -13.639  1.00  0.00     0.014 C 
BRANCH   6   7
HETATM    7  C   UNL     1      30.380 -17.489 -12.343  1.00  0.00     0.027 C 
BRANCH   7   8
HETATM    8  C   UNL     1      29.815 -16.099 -12.197  1.00  0.00    -0.030 C 
HETATM    9  C   UNL     1      30.539 -14.963 -12.199  1.00  0.00    -0.027 C 
BRANCH   9  10
HETATM   10  C   UNL     1      32.034 -14.879 -12.370  1.00  0.00     0.053 C 
BRANCH  10  11
HETATM   11  C   UNL     1      32.414 -14.781 -13.831  1.00  0.00    -0.027 C 
HETATM   12  C   UNL     1      32.456 -13.670 -14.595  1.00  0.00    -0.027 C 
BRANCH  12  13
HETATM   13  C   UNL     1      32.151 -12.258 -14.161  1.00  0.00     0.053 C 
BRANCH  13  14
HETATM   14  C   UNL     1      31.307 -11.568 -15.206  1.00  0.00    -0.027 C 
HETATM   15  C   UNL     1      29.966 -11.671 -15.309  1.00  0.00    -0.027 C 
BRANCH  15  16
HETATM   16  C   UNL     1      29.102 -12.510 -14.404  1.00  0.00     0.053 C 
BRANCH  16  17
HETATM   17  C   UNL     1      27.969 -13.154 -15.162  1.00  0.00    -0.027 C 
HETATM   18  C   UNL     1      28.036 -14.378 -15.715  1.00  0.00    -0.030 C 
BRANCH  18  19
HETATM   19  C   UNL     1      29.247 -15.276 -15.671  1.00  0.00     0.027 C 
BRANCH  19  20
HETATM   20  C   UNL     1      29.826 -15.429 -17.081  1.00  0.00     0.004 C 
BRANCH  20  21
HETATM   21  C   UNL     1      31.164 -16.176 -17.053  1.00  0.00    -0.000 C 
BRANCH  21  22
HETATM   22  C   UNL     1      31.237 -17.206 -18.187  1.00  0.00    -0.005 C 
HETATM   23  C   UNL     1      30.109 -18.227 -18.078  1.00  0.00     0.005 C 
ENDBRANCH  21  22
ENDBRANCH  20  21
ENDBRANCH  19  20
ENDBRANCH  18  19
ENDBRANCH  16  17
ENDBRANCH  15  16
ENDBRANCH  13  14
ENDBRANCH  12  13
ENDBRANCH  10  11
ENDBRANCH   9  10
ENDBRANCH   7   8
ENDBRANCH   6   7
ENDBRANCH   5   6
ENDBRANCH   3   5
ENDBRANCH   1   3
TORSDOF 15
ENDMDL
MODEL 9
REMARK VINA RESULT:      -5.0      3.757      6.277
REMARK  15 active torsions:
REMARK  status: ('A' for Active; 'I' for Inactive)
REMARK    1  A    between atoms: O_1  and  C_22 
REMARK    2  A    between atoms: C_3  and  C_4 
REMARK    3  A    between atoms: C_3  and  C_5 
REMARK    4  A    between atoms: C_4  and  C_6 
REMARK    5  A    between atoms: C_5  and  C_7 
REMARK    6  A    between atoms: C_9  and  C_10 
REMARK    7  A    between atoms: C_9  and  C_13 
REMARK    8  A    between atoms: C_10  and  C_14 
REMARK    9  A    between atoms: C_11  and  C_12 
REMARK   10  A    between atoms: C_12  and  C_16 
REMARK   11  A    between atoms: C_13  and  C_22 
REMARK   12  A    between atoms: C_15  and  C_17 
REMARK   13  A    between atoms: C_15  and  C_20 
REMARK   14  A    between atoms: C_18  and  C_19 
REMARK   15  A    between atoms: C_18  and  C_21 
ROOT
HETATM    1  O   UNL     1      32.106 -20.973 -14.836  1.00  0.00    -0.776 OA
HETATM    2  H   UNL     1      32.537 -21.726 -15.263  1.00  0.00     0.167 HD
ENDROOT
BRANCH   1   3
HETATM    3  C   UNL     1      30.879 -20.557 -15.216  1.00  0.00     0.139 C 
HETATM    4  O   UNL     1      30.627 -20.393 -16.401  1.00  0.00    -0.650 OA
BRANCH   3   5
HETATM    5  C   UNL     1      29.827 -20.284 -14.176  1.00  0.00     0.110 C 
BRANCH   5   6
HETATM    6  C   UNL     1      29.726 -18.794 -13.824  1.00  0.00     0.014 C 
BRANCH   6   7
HETATM    7  C   UNL     1      30.814 -18.344 -12.840  1.00  0.00     0.027 C 
BRANCH   7   8
HETATM    8  C   UNL     1      30.487 -18.846 -11.456  1.00  0.00    -0.030 C 
HETATM    9  C   UNL     1      30.201 -18.068 -10.395  1.00  0.00    -0.027 C 
BRANCH   9  10
HETATM   10  C   UNL     1      30.135 -16.562 -10.407  1.00  0.00     0.053 C 
BRANCH  10  11
HETATM   11  C   UNL     1      29.799 -16.017  -9.037  1.00  0.00    -0.027 C 
HETATM   12  C   UNL     1      29.061 -14.926  -8.747  1.00  0.00    -0.027 C 
BRANCH  12  13
HETATM   13  C   UNL     1      28.379 -14.005  -9.726  1.00  0.00     0.053 C 
BRANCH  13  14
HETATM   14  C   UNL     1      28.981 -12.622  -9.640  1.00  0.00    -0.027 C 
HETATM   15  C   UNL     1      29.405 -11.897 -10.695  1.00  0.00    -0.027 C 
BRANCH  15  16
HETATM   16  C   UNL     1      29.357 -12.363 -12.127  1.00  0.00     0.053 C 
BRANCH  16  17
HETATM   17  C   UNL     1      30.545 -13.230 -12.466  1.00  0.00    -0.027 C 
HETATM   18  C   UNL     1      30.455 -14.406 -13.110  1.00  0.00    -0.030 C 
BRANCH  18  19
HETATM   19  C   UNL     1      29.166 -15.035 -13.576  1.00  0.00     0.027 C 
BRANCH  19  20
HETATM   20  C   UNL     1      28.956 -14.738 -15.064  1.00  0.00     0.004 C 
BRANCH  20  21
HETATM   21  C   UNL     1      27.793 -13.763 -15.277  1.00  0.00    -0.000 C 
BRANCH  21  22
HETATM   22  C   UNL     1      28.310 -12.374 -15.670  1.00  0.00    -0.005 C 
HETATM   23  C   UNL     1      29.727 -12.451 -16.229  1.00  0.00     0.005 C 
ENDBRANCH  21  22
ENDBRANCH  20  21
ENDBRANCH  19  20
ENDBRANCH  18  19
ENDBRANCH  16  17
ENDBRANCH  15  16
ENDBRANCH  13  14
ENDBRANCH  12  13
ENDBRANCH  10  11
ENDBRANCH   9  10
ENDBRANCH   7   8
ENDBRANCH   6   7
ENDBRANCH   5   6
ENDBRANCH   3   5
ENDBRANCH   1   3
TORSDOF 15
ENDMDL
MODEL 10
REMARK VINA RESULT:      -5.0     27.060     29.441
REMARK  15 active torsions:
REMARK  status: ('A' for Active; 'I' for Inactive)
REMARK    1  A    between atoms: O_1  and  C_22 
REMARK    2  A    between atoms: C_3  and  C_4 
REMARK    3  A    between atoms: C_3  and  C_5 
REMARK    4  A    between atoms: C_4  and  C_6 
REMARK    5  A    between atoms: C_5  and  C_7 
REMARK    6  A    between atoms: C_9  and  C_10 
REMARK    7  A    between atoms: C_9  and  C_13 
REMARK    8  A    between atoms: C_10  and  C_14 
REMARK    9  A    between atoms: C_11  and  C_12 
REMARK   10  A    between atoms: C_12  and  C_16 
REMARK   11  A    between atoms: C_13  and  C_22 
REMARK   12  A    between atoms: C_15  and  C_17 
REMARK   13  A    between atoms: C_15  and  C_20 
REMARK   14  A    between atoms: C_18  and  C_19 
REMARK   15  A    between atoms: C_18  and  C_21 
ROOT
HETATM    1  O   UNL     1      43.078  13.865  -8.652  1.00  0.00    -0.776 OA
HETATM    2  H   UNL     1      42.176  14.159  -8.460  1.00  0.00     0.167 HD
ENDROOT
BRANCH   1   3
HETATM    3  C   UNL     1      43.462  12.589  -8.439  1.00  0.00     0.139 C 
HETATM    4  O   UNL     1      44.637  12.275  -8.559  1.00  0.00    -0.650 OA
BRANCH   3   5
HETATM    5  C   UNL     1      42.438  11.553  -8.065  1.00  0.00     0.110 C 
BRANCH   5   6
HETATM    6  C   UNL     1      41.975  11.688  -6.608  1.00  0.00     0.014 C 
BRANCH   6   7
HETATM    7  C   UNL     1      41.135  10.493  -6.140  1.00  0.00     0.027 C 
BRANCH   7   8
HETATM    8  C   UNL     1      41.130  10.434  -4.633  1.00  0.00    -0.030 C 
HETATM    9  C   UNL     1      41.030   9.308  -3.901  1.00  0.00    -0.027 C 
BRANCH   9  10
HETATM   10  C   UNL     1      40.929   7.910  -4.456  1.00  0.00     0.053 C 
BRANCH  10  11
HETATM   11  C   UNL     1      39.492   7.443  -4.509  1.00  0.00    -0.027 C 
HETATM   12  C   UNL     1      38.779   7.106  -5.603  1.00  0.00    -0.027 C 
BRANCH  12  13
HETATM   13  C   UNL     1      39.259   7.097  -7.032  1.00  0.00     0.053 C 
BRANCH  13  14
HETATM   14  C   UNL     1      38.795   8.348  -7.741  1.00  0.00    -0.027 C 
HETATM   15  C   UNL     1      39.180   8.724  -8.978  1.00  0.00    -0.027 C 
BRANCH  15  16
HETATM   16  C   UNL     1      40.149   7.959  -9.840  1.00  0.00     0.053 C 
BRANCH  16  17
HETATM   17  C   UNL     1      39.432   7.123 -10.870  1.00  0.00    -0.027 C 
HETATM   18  C   UNL     1      39.508   7.338 -12.195  1.00  0.00    -0.030 C 
BRANCH  18  19
HETATM   19  C   UNL     1      40.304   8.443 -12.843  1.00  0.00     0.027 C 
BRANCH  19  20
HETATM   20  C   UNL     1      40.637   8.058 -14.288  1.00  0.00     0.004 C 
BRANCH  20  21
HETATM   21  C   UNL     1      39.406   8.180 -15.193  1.00  0.00    -0.000 C 
BRANCH  21  22
HETATM   22  C   UNL     1      39.241   6.928 -16.063  1.00  0.00    -0.005 C 
HETATM   23  C   UNL     1      39.458   7.250 -17.539  1.00  0.00     0.005 C 
ENDBRANCH  21  22
ENDBRANCH  20  21
ENDBRANCH  19  20
ENDBRANCH  18  19
ENDBRANCH  16  17
ENDBRANCH  15  16
ENDBRANCH  13  14
ENDBRANCH  12  13
ENDBRANCH  10  11
ENDBRANCH   9  10
ENDBRANCH   7   8
ENDBRANCH   6   7
ENDBRANCH   5   6
ENDBRANCH   3   5
ENDBRANCH   1   3
TORSDOF 15
ENDMDL
MODEL 11
REMARK VINA RESULT:      -4.9      2.875      5.422
REMARK  15 active torsions:
REMARK  status: ('A' for Active; 'I' for Inactive)
REMARK    1  A    between atoms: O_1  and  C_22 
REMARK    2  A    between atoms: C_3  and  C_4 
REMARK    3  A    between atoms: C_3  and  C_5 
REMARK    4  A    between atoms: C_4  and  C_6 
REMARK    5  A    between atoms: C_5  and  C_7 
REMARK    6  A    between atoms: C_9  and  C_10 
REMARK    7  A    between atoms: C_9  and  C_13 
REMARK    8  A    between atoms: C_10  and  C_14 
REMARK    9  A    between atoms: C_11  and  C_12 
REMARK   10  A    between atoms: C_12  and  C_16 
REMARK   11  A    between atoms: C_13  and  C_22 
REMARK   12  A    between atoms: C_15  and  C_17 
REMARK   13  A    between atoms: C_15  and  C_20 
REMARK   14  A    between atoms: C_18  and  C_19 
REMARK   15  A    between atoms: C_18  and  C_21 
ROOT
HETATM    1  O   UNL     1      29.885 -21.024  -8.884  1.00  0.00    -0.776 OA
HETATM    2  H   UNL     1      30.386 -21.702  -9.359  1.00  0.00     0.167 HD
ENDROOT
BRANCH   1   3
HETATM    3  C   UNL     1      30.480 -20.207  -7.991  1.00  0.00     0.139 C 
HETATM    4  O   UNL     1      31.251 -20.665  -7.159  1.00  0.00    -0.650 OA
BRANCH   3   5
HETATM    5  C   UNL     1      30.184 -18.732  -8.013  1.00  0.00     0.110 C 
BRANCH   5   6
HETATM    6  C   UNL     1      30.295 -18.093  -6.622  1.00  0.00     0.014 C 
BRANCH   6   7
HETATM    7  C   UNL     1      30.509 -16.575  -6.684  1.00  0.00     0.027 C 
BRANCH   7   8
HETATM    8  C   UNL     1      31.432 -16.238  -7.828  1.00  0.00    -0.030 C 
HETATM    9  C   UNL     1      32.559 -15.509  -7.728  1.00  0.00    -0.027 C 
BRANCH   9  10
HETATM   10  C   UNL     1      33.110 -14.922  -6.453  1.00  0.00     0.053 C 
BRANCH  10  11
HETATM   11  C   UNL     1      34.343 -14.087  -6.722  1.00  0.00    -0.027 C 
HETATM   12  C   UNL     1      34.391 -12.809  -7.148  1.00  0.00    -0.027 C 
BRANCH  12  13
HETATM   13  C   UNL     1      33.221 -11.903  -7.436  1.00  0.00     0.053 C 
BRANCH  13  14
HETATM   14  C   UNL     1      32.898 -11.071  -6.218  1.00  0.00    -0.027 C 
HETATM   15  C   UNL     1      31.812 -11.234  -5.435  1.00  0.00    -0.027 C 
BRANCH  15  16
HETATM   16  C   UNL     1      30.740 -12.267  -5.667  1.00  0.00     0.053 C 
BRANCH  16  17
HETATM   17  C   UNL     1      29.361 -11.665  -5.560  1.00  0.00    -0.027 C 
HETATM   18  C   UNL     1      28.225 -12.354  -5.766  1.00  0.00    -0.030 C 
BRANCH  18  19
HETATM   19  C   UNL     1      28.159 -13.812  -6.145  1.00  0.00     0.027 C 
BRANCH  19  20
HETATM   20  C   UNL     1      27.407 -13.966  -7.471  1.00  0.00     0.004 C 
BRANCH  20  21
HETATM   21  C   UNL     1      28.362 -14.339  -8.610  1.00  0.00    -0.000 C 
BRANCH  21  22
HETATM   22  C   UNL     1      28.659 -13.122  -9.495  1.00  0.00    -0.005 C 
HETATM   23  C   UNL     1      30.065 -12.588  -9.243  1.00  0.00     0.005 C 
ENDBRANCH  21  22
ENDBRANCH  20  21
ENDBRANCH  19  20
ENDBRANCH  18  19
ENDBRANCH  16  17
ENDBRANCH  15  16
ENDBRANCH  13  14
ENDBRANCH  12  13
ENDBRANCH  10  11
ENDBRANCH   9  10
ENDBRANCH   7   8
ENDBRANCH   6   7
ENDBRANCH   5   6
ENDBRANCH   3   5
ENDBRANCH   1   3
TORSDOF 15
ENDMDL
MODEL 12
REMARK VINA RESULT:      -4.9     27.966     30.651
REMARK  15 active torsions:
REMARK  status: ('A' for Active; 'I' for Inactive)
REMARK    1  A    between atoms: O_1  and  C_22 
REMARK    2  A    between atoms: C_3  and  C_4 
REMARK    3  A    between atoms: C_3  and  C_5 
REMARK    4  A    between atoms: C_4  and  C_6 
REMARK    5  A    between atoms: C_5  and  C_7 
REMARK    6  A    between atoms: C_9  and  C_10 
REMARK    7  A    between atoms: C_9  and  C_13 
REMARK    8  A    between atoms: C_10  and  C_14 
REMARK    9  A    between atoms: C_11  and  C_12 
REMARK   10  A    between atoms: C_12  and  C_16 
REMARK   11  A    between atoms: C_13  and  C_22 
REMARK   12  A    between atoms: C_15  and  C_17 
REMARK   13  A    between atoms: C_15  and  C_20 
REMARK   14  A    between atoms: C_18  and  C_19 
REMARK   15  A    between atoms: C_18  and  C_21 
ROOT
HETATM    1  O   UNL     1      41.284  13.649 -12.318  1.00  0.00    -0.776 OA
HETATM    2  H   UNL     1      41.373  13.150 -11.494  1.00  0.00     0.167 HD
ENDROOT
BRANCH   1   3
HETATM    3  C   UNL     1      41.641  13.115 -13.505  1.00  0.00     0.139 C 
HETATM    4  O   UNL     1      42.490  13.664 -14.193  1.00  0.00    -0.650 OA
BRANCH   3   5
HETATM    5  C   UNL     1      40.984  11.850 -13.984  1.00  0.00     0.110 C 
BRANCH   5   6
HETATM    6  C   UNL     1      40.281  11.091 -12.849  1.00  0.00     0.014 C 
BRANCH   6   7
HETATM    7  C   UNL     1      40.951   9.748 -12.531  1.00  0.00     0.027 C 
BRANCH   7   8
HETATM    8  C   UNL     1      41.360   9.068 -13.813  1.00  0.00    -0.030 C 
HETATM    9  C   UNL     1      40.719   8.028 -14.379  1.00  0.00    -0.027 C 
BRANCH   9  10
HETATM   10  C   UNL     1      39.469   7.375 -13.845  1.00  0.00     0.053 C 
BRANCH  10  11
HETATM   11  C   UNL     1      38.438   7.190 -14.936  1.00  0.00    -0.027 C 
HETATM   12  C   UNL     1      37.717   8.147 -15.555  1.00  0.00    -0.027 C 
BRANCH  12  13
HETATM   13  C   UNL     1      37.787   9.634 -15.314  1.00  0.00     0.053 C 
BRANCH  13  14
HETATM   14  C   UNL     1      37.677  10.376 -16.625  1.00  0.00    -0.027 C 
HETATM   15  C   UNL     1      38.716  10.687 -17.427  1.00  0.00    -0.027 C 
BRANCH  15  16
HETATM   16  C   UNL     1      40.155  10.356 -17.128  1.00  0.00     0.053 C 
BRANCH  16  17
HETATM   17  C   UNL     1      40.899   9.948 -18.375  1.00  0.00    -0.027 C 
HETATM   18  C   UNL     1      40.862   8.711 -18.900  1.00  0.00    -0.030 C 
BRANCH  18  19
HETATM   19  C   UNL     1      40.089   7.553 -18.320  1.00  0.00     0.027 C 
BRANCH  19  20
HETATM   20  C   UNL     1      38.838   7.294 -19.166  1.00  0.00     0.004 C 
BRANCH  20  21
HETATM   21  C   UNL     1      39.176   7.264 -20.660  1.00  0.00    -0.000 C 
BRANCH  21  22
HETATM   22  C   UNL     1      38.372   8.323 -21.424  1.00  0.00    -0.005 C 
HETATM   23  C   UNL     1      37.335   8.985 -20.521  1.00  0.00     0.005 C 
ENDBRANCH  21  22
ENDBRANCH  20  21
ENDBRANCH  19  20
ENDBRANCH  18  19
ENDBRANCH  16  17
ENDBRANCH  15  16
ENDBRANCH  13  14
ENDBRANCH  12  13
ENDBRANCH  10  11
ENDBRANCH   9  10
ENDBRANCH   7   8
ENDBRANCH   6   7
ENDBRANCH   5   6
ENDBRANCH   3   5
ENDBRANCH   1   3
TORSDOF 15
ENDMDL
MODEL 13
REMARK VINA RESULT:      -4.9     26.476     28.847
REMARK  15 active torsions:
REMARK  status: ('A' for Active; 'I' for Inactive)
REMARK    1  A    between atoms: O_1  and  C_22 
REMARK    2  A    between atoms: C_3  and  C_4 
REMARK    3  A    between atoms: C_3  and  C_5 
REMARK    4  A    between atoms: C_4  and  C_6 
REMARK    5  A    between atoms: C_5  and  C_7 
REMARK    6  A    between atoms: C_9  and  C_10 
REMARK    7  A    between atoms: C_9  and  C_13 
REMARK    8  A    between atoms: C_10  and  C_14 
REMARK    9  A    between atoms: C_11  and  C_12 
REMARK   10  A    between atoms: C_12  and  C_16 
REMARK   11  A    between atoms: C_13  and  C_22 
REMARK   12  A    between atoms: C_15  and  C_17 
REMARK   13  A    between atoms: C_15  and  C_20 
REMARK   14  A    between atoms: C_18  and  C_19 
REMARK   15  A    between atoms: C_18  and  C_21 
ROOT
HETATM    1  O   UNL     1      39.287   6.957 -22.116  1.00  0.00    -0.776 OA
HETATM    2  H   UNL     1      39.337   6.005 -21.947  1.00  0.00     0.167 HD
ENDROOT
BRANCH   1   3
HETATM    3  C   UNL     1      39.897   7.848 -21.307  1.00  0.00     0.139 C 
HETATM    4  O   UNL     1      40.397   8.860 -21.778  1.00  0.00    -0.650 OA
BRANCH   3   5
HETATM    5  C   UNL     1      39.969   7.588 -19.828  1.00  0.00     0.110 C 
BRANCH   5   6
HETATM    6  C   UNL     1      40.987   8.497 -19.124  1.00  0.00     0.014 C 
BRANCH   6   7
HETATM    7  C   UNL     1      40.321   9.543 -18.222  1.00  0.00     0.027 C 
BRANCH   7   8
HETATM    8  C   UNL     1      38.911   9.796 -18.691  1.00  0.00    -0.030 C 
HETATM    9  C   UNL     1      37.903  10.241 -17.918  1.00  0.00    -0.027 C 
BRANCH   9  10
HETATM   10  C   UNL     1      38.011  10.589 -16.455  1.00  0.00     0.053 C 
BRANCH  10  11
HETATM   11  C   UNL     1      37.183   9.651 -15.605  1.00  0.00    -0.027 C 
HETATM   12  C   UNL     1      37.519   8.414 -15.184  1.00  0.00    -0.027 C 
BRANCH  12  13
HETATM   13  C   UNL     1      38.812   7.685 -15.448  1.00  0.00     0.053 C 
BRANCH  13  14
HETATM   14  C   UNL     1      39.945   8.361 -14.713  1.00  0.00    -0.027 C 
HETATM   15  C   UNL     1      40.232   8.188 -13.407  1.00  0.00    -0.027 C 
BRANCH  15  16
HETATM   16  C   UNL     1      39.451   7.303 -12.471  1.00  0.00     0.053 C 
BRANCH  16  17
HETATM   17  C   UNL     1      38.391   8.080 -11.731  1.00  0.00    -0.027 C 
HETATM   18  C   UNL     1      38.164   7.969 -10.411  1.00  0.00    -0.030 C 
BRANCH  18  19
HETATM   19  C   UNL     1      38.920   7.052  -9.483  1.00  0.00     0.027 C 
BRANCH  19  20
HETATM   20  C   UNL     1      39.838   7.879  -8.577  1.00  0.00     0.004 C 
BRANCH  20  21
HETATM   21  C   UNL     1      41.138   8.252  -9.298  1.00  0.00    -0.000 C 
BRANCH  21  22
HETATM   22  C   UNL     1      41.256   9.772  -9.460  1.00  0.00    -0.005 C 
HETATM   23  C   UNL     1      40.967  10.491  -8.146  1.00  0.00     0.005 C 
ENDBRANCH  21  22
ENDBRANCH  20  21
ENDBRANCH  19  20
ENDBRANCH  18  19
ENDBRANCH  16  17
ENDBRANCH  15  16
ENDBRANCH  13  14
ENDBRANCH  12  13
ENDBRANCH  10  11
ENDBRANCH   9  10
ENDBRANCH   7   8
ENDBRANCH   6   7
ENDBRANCH   5   6
ENDBRANCH   3   5
ENDBRANCH   1   3
TORSDOF 15
ENDMDL
MODEL 14
REMARK VINA RESULT:      -4.9      5.002      7.277
REMARK  15 active torsions:
REMARK  status: ('A' for Active; 'I' for Inactive)
REMARK    1  A    between atoms: O_1  and  C_22 
REMARK    2  A    between atoms: C_3  and  C_4 
REMARK    3  A    between atoms: C_3  and  C_5 
REMARK    4  A    between atoms: C_4  and  C_6 
REMARK    5  A    between atoms: C_5  and  C_7 
REMARK    6  A    between atoms: C_9  and  C_10 
REMARK    7  A    between atoms: C_9  and  C_13 
REMARK    8  A    between atoms: C_10  and  C_14 
REMARK    9  A    between atoms: C_11  and  C_12 
REMARK   10  A    between atoms: C_12  and  C_16 
REMARK   11  A    between atoms: C_13  and  C_22 
REMARK   12  A    between atoms: C_15  and  C_17 
REMARK   13  A    between atoms: C_15  and  C_20 
REMARK   14  A    between atoms: C_18  and  C_19 
REMARK   15  A    between atoms: C_18  and  C_21 
ROOT
HETATM    1  O   UNL     1      29.854 -21.066 -13.898  1.00  0.00    -0.776 OA
HETATM    2  H   UNL     1      29.318 -21.803 -14.223  1.00  0.00     0.167 HD
ENDROOT
BRANCH   1   3
HETATM    3  C   UNL     1      30.682 -20.385 -14.718  1.00  0.00     0.139 C 
HETATM    4  O   UNL     1      31.172 -20.938 -15.692  1.00  0.00    -0.650 OA
BRANCH   3   5
HETATM    5  C   UNL     1      31.008 -18.946 -14.423  1.00  0.00     0.110 C 
BRANCH   5   6
HETATM    6  C   UNL     1      29.901 -18.249 -13.620  1.00  0.00     0.014 C 
BRANCH   6   7
HETATM    7  C   UNL     1      30.195 -16.763 -13.375  1.00  0.00     0.027 C 
BRANCH   7   8
HETATM    8  C   UNL     1      30.199 -16.484 -11.893  1.00  0.00    -0.030 C 
HETATM    9  C   UNL     1      29.403 -15.595 -11.269  1.00  0.00    -0.027 C 
BRANCH   9  10
HETATM   10  C   UNL     1      28.354 -14.741 -11.935  1.00  0.00     0.053 C 
BRANCH  10  11
HETATM   11  C   UNL     1      27.727 -13.777 -10.953  1.00  0.00    -0.027 C 
HETATM   12  C   UNL     1      28.103 -12.507 -10.697  1.00  0.00    -0.027 C 
BRANCH  12  13
HETATM   13  C   UNL     1      29.228 -11.744 -11.348  1.00  0.00     0.053 C 
BRANCH  13  14
HETATM   14  C   UNL     1      30.447 -11.760 -10.457  1.00  0.00    -0.027 C 
HETATM   15  C   UNL     1      31.658 -12.237 -10.811  1.00  0.00    -0.027 C 
BRANCH  15  16
HETATM   16  C   UNL     1      31.978 -12.845 -12.151  1.00  0.00     0.053 C 
BRANCH  16  17
HETATM   17  C   UNL     1      32.811 -11.915 -12.997  1.00  0.00    -0.027 C 
HETATM   18  C   UNL     1      32.400 -11.392 -14.165  1.00  0.00    -0.030 C 
BRANCH  18  19
HETATM   19  C   UNL     1      31.062 -11.665 -14.806  1.00  0.00     0.027 C 
BRANCH  19  20
HETATM   20  C   UNL     1      31.139 -12.955 -15.630  1.00  0.00     0.004 C 
BRANCH  20  21
HETATM   21  C   UNL     1      29.819 -13.731 -15.571  1.00  0.00    -0.000 C 
BRANCH  21  22
HETATM   22  C   UNL     1      28.715 -12.883 -14.928  1.00  0.00    -0.005 C 
HETATM   23  C   UNL     1      27.343 -13.251 -15.484  1.00  0.00     0.005 C 
ENDBRANCH  21  22
ENDBRANCH  20  21
ENDBRANCH  19  20
ENDBRANCH  18  19
ENDBRANCH  16  17
ENDBRANCH  15  16
ENDBRANCH  13  14
ENDBRANCH  12  13
ENDBRANCH  10  11
ENDBRANCH   9  10
ENDBRANCH   7   8
ENDBRANCH   6   7
ENDBRANCH   5   6
ENDBRANCH   3   5
ENDBRANCH   1   3
TORSDOF 15
ENDMDL
MODEL 15
REMARK VINA RESULT:      -4.9     26.358     27.802
REMARK  15 active torsions:
REMARK  status: ('A' for Active; 'I' for Inactive)
REMARK    1  A    between atoms: O_1  and  C_22 
REMARK    2  A    between atoms: C_3  and  C_4 
REMARK    3  A    between atoms: C_3  and  C_5 
REMARK    4  A    between atoms: C_4  and  C_6 
REMARK    5  A    between atoms: C_5  and  C_7 
REMARK    6  A    between atoms: C_9  and  C_10 
REMARK    7  A    between atoms: C_9  and  C_13 
REMARK    8  A    between atoms: C_10  and  C_14 
REMARK    9  A    between atoms: C_11  and  C_12 
REMARK   10  A    between atoms: C_12  and  C_16 
REMARK   11  A    between atoms: C_13  and  C_22 
REMARK   12  A    between atoms: C_15  and  C_17 
REMARK   13  A    between atoms: C_15  and  C_20 
REMARK   14  A    between atoms: C_18  and  C_19 
REMARK   15  A    between atoms: C_18  and  C_21 
ROOT
HETATM    1  O   UNL     1      38.848   6.285 -19.919  1.00  0.00    -0.776 OA
HETATM    2  H   UNL     1      39.489   5.837 -20.489  1.00  0.00     0.167 HD
ENDROOT
BRANCH   1   3
HETATM    3  C   UNL     1      38.772   7.632 -19.868  1.00  0.00     0.139 C 
HETATM    4  O   UNL     1      37.719   8.197 -20.126  1.00  0.00    -0.650 OA
BRANCH   3   5
HETATM    5  C   UNL     1      39.991   8.436 -19.506  1.00  0.00     0.110 C 
BRANCH   5   6
HETATM    6  C   UNL     1      40.358   8.303 -18.021  1.00  0.00     0.014 C 
BRANCH   6   7
HETATM    7  C   UNL     1      39.137   8.411 -17.098  1.00  0.00     0.027 C 
BRANCH   7   8
HETATM    8  C   UNL     1      38.904   7.090 -16.408  1.00  0.00    -0.030 C 
HETATM    9  C   UNL     1      39.001   6.880 -15.082  1.00  0.00    -0.027 C 
BRANCH   9  10
HETATM   10  C   UNL     1      39.336   7.929 -14.052  1.00  0.00     0.053 C 
BRANCH  10  11
HETATM   11  C   UNL     1      39.719   7.298 -12.731  1.00  0.00    -0.027 C 
HETATM   12  C   UNL     1      39.579   7.828 -11.498  1.00  0.00    -0.027 C 
BRANCH  12  13
HETATM   13  C   UNL     1      38.987   9.169 -11.149  1.00  0.00     0.053 C 
BRANCH  13  14
HETATM   14  C   UNL     1      37.835   8.991 -10.188  1.00  0.00    -0.027 C 
HETATM   15  C   UNL     1      37.956   8.868  -8.850  1.00  0.00    -0.027 C 
BRANCH  15  16
HETATM   16  C   UNL     1      39.266   8.873  -8.107  1.00  0.00     0.053 C 
BRANCH  16  17
HETATM   17  C   UNL     1      39.434   7.625  -7.276  1.00  0.00    -0.027 C 
HETATM   18  C   UNL     1      38.730   7.366  -6.161  1.00  0.00    -0.030 C 
BRANCH  18  19
HETATM   19  C   UNL     1      37.685   8.280  -5.572  1.00  0.00     0.027 C 
BRANCH  19  20
HETATM   20  C   UNL     1      38.138   8.753  -4.186  1.00  0.00     0.004 C 
BRANCH  20  21
HETATM   21  C   UNL     1      39.083   9.955  -4.292  1.00  0.00    -0.000 C 
BRANCH  21  22
HETATM   22  C   UNL     1      40.336   9.741  -3.435  1.00  0.00    -0.005 C 
HETATM   23  C   UNL     1      41.445   9.068  -4.238  1.00  0.00     0.005 C 
ENDBRANCH  21  22
ENDBRANCH  20  21
ENDBRANCH  19  20
ENDBRANCH  18  19
ENDBRANCH  16  17
ENDBRANCH  15  16
ENDBRANCH  13  14
ENDBRANCH  12  13
ENDBRANCH  10  11
ENDBRANCH   9  10
ENDBRANCH   7   8
ENDBRANCH   6   7
ENDBRANCH   5   6
ENDBRANCH   3   5
ENDBRANCH   1   3
TORSDOF 15
ENDMDL
MODEL 16
REMARK VINA RESULT:      -4.9     26.939     29.198
REMARK  15 active torsions:
REMARK  status: ('A' for Active; 'I' for Inactive)
REMARK    1  A    between atoms: O_1  and  C_22 
REMARK    2  A    between atoms: C_3  and  C_4 
REMARK    3  A    between atoms: C_3  and  C_5 
REMARK    4  A    between atoms: C_4  and  C_6 
REMARK    5  A    between atoms: C_5  and  C_7 
REMARK    6  A    between atoms: C_9  and  C_10 
REMARK    7  A    between atoms: C_9  and  C_13 
REMARK    8  A    between atoms: C_10  and  C_14 
REMARK    9  A    between atoms: C_11  and  C_12 
REMARK   10  A    between atoms: C_12  and  C_16 
REMARK   11  A    between atoms: C_13  and  C_22 
REMARK   12  A    between atoms: C_15  and  C_17 
REMARK   13  A    between atoms: C_15  and  C_20 
REMARK   14  A    between atoms: C_18  and  C_19 
REMARK   15  A    between atoms: C_18  and  C_21 
ROOT
HETATM    1  O   UNL     1      42.447  11.177  -5.249  1.00  0.00    -0.776 OA
HETATM    2  H   UNL     1      43.075  10.721  -5.827  1.00  0.00     0.167 HD
ENDROOT
BRANCH   1   3
HETATM    3  C   UNL     1      42.407  10.932  -3.922  1.00  0.00     0.139 C 
HETATM    4  O   UNL     1      43.090  11.594  -3.155  1.00  0.00    -0.650 OA
BRANCH   3   5
HETATM    5  C   UNL     1      41.527   9.833  -3.392  1.00  0.00     0.110 C 
BRANCH   5   6
HETATM    6  C   UNL     1      41.010   8.910  -4.505  1.00  0.00     0.014 C 
BRANCH   6   7
HETATM    7  C   UNL     1      39.510   8.614  -4.378  1.00  0.00     0.027 C 
BRANCH   7   8
HETATM    8  C   UNL     1      39.189   7.314  -5.072  1.00  0.00    -0.030 C 
HETATM    9  C   UNL     1      38.970   7.172  -6.393  1.00  0.00    -0.027 C 
BRANCH   9  10
HETATM   10  C   UNL     1      39.030   8.280  -7.413  1.00  0.00     0.053 C 
BRANCH  10  11
HETATM   11  C   UNL     1      40.217   8.112  -8.335  1.00  0.00    -0.027 C 
HETATM   12  C   UNL     1      40.232   7.544  -9.558  1.00  0.00    -0.027 C 
BRANCH  12  13
HETATM   13  C   UNL     1      39.058   6.960 -10.302  1.00  0.00     0.053 C 
BRANCH  13  14
HETATM   14  C   UNL     1      38.330   8.047 -11.056  1.00  0.00    -0.027 C 
HETATM   15  C   UNL     1      38.558   8.382 -12.342  1.00  0.00    -0.027 C 
BRANCH  15  16
HETATM   16  C   UNL     1      39.591   7.731 -13.224  1.00  0.00     0.053 C 
BRANCH  16  17
HETATM   17  C   UNL     1      40.230   8.729 -14.157  1.00  0.00    -0.027 C 
HETATM   18  C   UNL     1      39.818   8.948 -15.418  1.00  0.00    -0.030 C 
BRANCH  18  19
HETATM   19  C   UNL     1      38.673   8.228 -16.085  1.00  0.00     0.027 C 
BRANCH  19  20
HETATM   20  C   UNL     1      39.216   7.299 -17.176  1.00  0.00     0.004 C 
BRANCH  20  21
HETATM   21  C   UNL     1      40.305   7.991 -18.003  1.00  0.00    -0.000 C 
BRANCH  21  22
HETATM   22  C   UNL     1      40.130   7.691 -19.497  1.00  0.00    -0.005 C 
HETATM   23  C   UNL     1      38.824   6.948 -19.760  1.00  0.00     0.005 C 
ENDBRANCH  21  22
ENDBRANCH  20  21
ENDBRANCH  19  20
ENDBRANCH  18  19
ENDBRANCH  16  17
ENDBRANCH  15  16
ENDBRANCH  13  14
ENDBRANCH  12  13
ENDBRANCH  10  11
ENDBRANCH   9  10
ENDBRANCH   7   8
ENDBRANCH   6   7
ENDBRANCH   5   6
ENDBRANCH   3   5
ENDBRANCH   1   3
TORSDOF 15
ENDMDL
MODEL 17
REMARK VINA RESULT:      -4.8      2.547      4.103
REMARK  15 active torsions:
REMARK  status: ('A' for Active; 'I' for Inactive)
REMARK    1  A    between atoms: O_1  and  C_22 
REMARK    2  A    between atoms: C_3  and  C_4 
REMARK    3  A    between atoms: C_3  and  C_5 
REMARK    4  A    between atoms: C_4  and  C_6 
REMARK    5  A    between atoms: C_5  and  C_7 
REMARK    6  A    between atoms: C_9  and  C_10 
REMARK    7  A    between atoms: C_9  and  C_13 
REMARK    8  A    between atoms: C_10  and  C_14 
REMARK    9  A    between atoms: C_11  and  C_12 
REMARK   10  A    between atoms: C_12  and  C_16 
REMARK   11  A    between atoms: C_13  and  C_22 
REMARK   12  A    between atoms: C_15  and  C_17 
REMARK   13  A    between atoms: C_15  and  C_20 
REMARK   14  A    between atoms: C_18  and  C_19 
REMARK   15  A    between atoms: C_18  and  C_21 
ROOT
HETATM    1  O   UNL     1      32.082 -20.785 -15.481  1.00  0.00    -0.776 OA
HETATM    2  H   UNL     1      32.226 -21.644 -15.059  1.00  0.00     0.167 HD
ENDROOT
BRANCH   1   3
HETATM    3  C   UNL     1      30.968 -20.061 -15.238  1.00  0.00     0.139 C 
HETATM    4  O   UNL     1      30.454 -19.409 -16.135  1.00  0.00    -0.650 OA
BRANCH   3   5
HETATM    5  C   UNL     1      30.370 -20.050 -13.858  1.00  0.00     0.110 C 
BRANCH   5   6
HETATM    6  C   UNL     1      29.739 -18.695 -13.507  1.00  0.00     0.014 C 
BRANCH   6   7
HETATM    7  C   UNL     1      30.412 -18.024 -12.303  1.00  0.00     0.027 C 
BRANCH   7   8
HETATM    8  C   UNL     1      30.524 -19.010 -11.167  1.00  0.00    -0.030 C 
HETATM    9  C   UNL     1      30.399 -18.708  -9.861  1.00  0.00    -0.027 C 
BRANCH   9  10
HETATM   10  C   UNL     1      30.103 -17.339  -9.305  1.00  0.00     0.053 C 
BRANCH  10  11
HETATM   11  C   UNL     1      31.193 -16.882  -8.361  1.00  0.00    -0.027 C 
HETATM   12  C   UNL     1      31.890 -15.729  -8.410  1.00  0.00    -0.027 C 
BRANCH  12  13
HETATM   13  C   UNL     1      31.728 -14.612  -9.410  1.00  0.00     0.053 C 
BRANCH  13  14
HETATM   14  C   UNL     1      32.241 -15.050 -10.761  1.00  0.00    -0.027 C 
HETATM   15  C   UNL     1      31.661 -14.754 -11.942  1.00  0.00    -0.027 C 
BRANCH  15  16
HETATM   16  C   UNL     1      30.395 -13.951 -12.094  1.00  0.00     0.053 C 
BRANCH  16  17
HETATM   17  C   UNL     1      29.170 -14.805 -11.885  1.00  0.00    -0.027 C 
HETATM   18  C   UNL     1      28.223 -14.546 -10.966  1.00  0.00    -0.030 C 
BRANCH  18  19
HETATM   19  C   UNL     1      28.249 -13.382 -10.009  1.00  0.00     0.027 C 
BRANCH  19  20
HETATM   20  C   UNL     1      28.228 -13.900  -8.567  1.00  0.00     0.004 C 
BRANCH  20  21
HETATM   21  C   UNL     1      29.020 -12.977  -7.634  1.00  0.00    -0.000 C 
BRANCH  21  22
HETATM   22  C   UNL     1      29.480 -13.731  -6.381  1.00  0.00    -0.005 C 
HETATM   23  C   UNL     1      28.727 -15.048  -6.223  1.00  0.00     0.005 C 
ENDBRANCH  21  22
ENDBRANCH  20  21
ENDBRANCH  19  20
ENDBRANCH  18  19
ENDBRANCH  16  17
ENDBRANCH  15  16
ENDBRANCH  13  14
ENDBRANCH  12  13
ENDBRANCH  10  11
ENDBRANCH   9  10
ENDBRANCH   7   8
ENDBRANCH   6   7
ENDBRANCH   5   6
ENDBRANCH   3   5
ENDBRANCH   1   3
TORSDOF 15
ENDMDL
MODEL 18
REMARK VINA RESULT:      -4.8      5.453      8.188
REMARK  15 active torsions:
REMARK  status: ('A' for Active; 'I' for Inactive)
REMARK    1  A    between atoms: O_1  and  C_22 
REMARK    2  A    between atoms: C_3  and  C_4 
REMARK    3  A    between atoms: C_3  and  C_5 
REMARK    4  A    between atoms: C_4  and  C_6 
REMARK    5  A    between atoms: C_5  and  C_7 
REMARK    6  A    between atoms: C_9  and  C_10 
REMARK    7  A    between atoms: C_9  and  C_13 
REMARK    8  A    between atoms: C_10  and  C_14 
REMARK    9  A    between atoms: C_11  and  C_12 
REMARK   10  A    between atoms: C_12  and  C_16 
REMARK   11  A    between atoms: C_13  and  C_22 
REMARK   12  A    between atoms: C_15  and  C_17 
REMARK   13  A    between atoms: C_15  and  C_20 
REMARK   14  A    between atoms: C_18  and  C_19 
REMARK   15  A    between atoms: C_18  and  C_21 
ROOT
HETATM    1  O   UNL     1      29.880 -21.023 -13.888  1.00  0.00    -0.776 OA
HETATM    2  H   UNL     1      28.981 -20.740 -13.669  1.00  0.00     0.167 HD
ENDROOT
BRANCH   1   3
HETATM    3  C   UNL     1      30.618 -20.369 -14.810  1.00  0.00     0.139 C 
HETATM    4  O   UNL     1      31.376 -20.991 -15.541  1.00  0.00    -0.650 OA
BRANCH   3   5
HETATM    5  C   UNL     1      30.513 -18.874 -14.928  1.00  0.00     0.110 C 
BRANCH   5   6
HETATM    6  C   UNL     1      30.328 -18.414 -16.382  1.00  0.00     0.014 C 
BRANCH   6   7
HETATM    7  C   UNL     1      30.257 -16.887 -16.515  1.00  0.00     0.027 C 
BRANCH   7   8
HETATM    8  C   UNL     1      31.461 -16.387 -17.273  1.00  0.00    -0.030 C 
HETATM    9  C   UNL     1      32.280 -15.399 -16.864  1.00  0.00    -0.027 C 
BRANCH   9  10
HETATM   10  C   UNL     1      32.153 -14.637 -15.570  1.00  0.00     0.053 C 
BRANCH  10  11
HETATM   11  C   UNL     1      33.049 -15.220 -14.500  1.00  0.00    -0.027 C 
HETATM   12  C   UNL     1      32.674 -15.786 -13.334  1.00  0.00    -0.027 C 
BRANCH  12  13
HETATM   13  C   UNL     1      31.267 -15.986 -12.834  1.00  0.00     0.053 C 
BRANCH  13  14
HETATM   14  C   UNL     1      31.108 -15.355 -11.470  1.00  0.00    -0.027 C 
HETATM   15  C   UNL     1      30.538 -14.155 -11.235  1.00  0.00    -0.027 C 
BRANCH  15  16
HETATM   16  C   UNL     1      29.984 -13.249 -12.303  1.00  0.00     0.053 C 
BRANCH  16  17
HETATM   17  C   UNL     1      28.501 -13.454 -12.488  1.00  0.00    -0.027 C 
HETATM   18  C   UNL     1      27.935 -13.824 -13.650  1.00  0.00    -0.030 C 
BRANCH  18  19
HETATM   19  C   UNL     1      28.688 -14.074 -14.932  1.00  0.00     0.027 C 
BRANCH  19  20
HETATM   20  C   UNL     1      27.702 -14.139 -16.103  1.00  0.00     0.004 C 
BRANCH  20  21
HETATM   21  C   UNL     1      28.388 -13.785 -17.427  1.00  0.00    -0.000 C 
BRANCH  21  22
HETATM   22  C   UNL     1      29.491 -12.742 -17.209  1.00  0.00    -0.005 C 
HETATM   23  C   UNL     1      30.317 -12.540 -18.476  1.00  0.00     0.005 C 
ENDBRANCH  21  22
ENDBRANCH  20  21
ENDBRANCH  19  20
ENDBRANCH  18  19
ENDBRANCH  16  17
ENDBRANCH  15  16
ENDBRANCH  13  14
ENDBRANCH  12  13
ENDBRANCH  10  11
ENDBRANCH   9  10
ENDBRANCH   7   8
ENDBRANCH   6   7
ENDBRANCH   5   6
ENDBRANCH   3   5
ENDBRANCH   1   3
TORSDOF 15
ENDMDL
MODEL 19
REMARK VINA RESULT:      -4.8      2.831      5.718
REMARK  15 active torsions:
REMARK  status: ('A' for Active; 'I' for Inactive)
REMARK    1  A    between atoms: O_1  and  C_22 
REMARK    2  A    between atoms: C_3  and  C_4 
REMARK    3  A    between atoms: C_3  and  C_5 
REMARK    4  A    between atoms: C_4  and  C_6 
REMARK    5  A    between atoms: C_5  and  C_7 
REMARK    6  A    between atoms: C_9  and  C_10 
REMARK    7  A    between atoms: C_9  and  C_13 
REMARK    8  A    between atoms: C_10  and  C_14 
REMARK    9  A    between atoms: C_11  and  C_12 
REMARK   10  A    between atoms: C_12  and  C_16 
REMARK   11  A    between atoms: C_13  and  C_22 
REMARK   12  A    between atoms: C_15  and  C_17 
REMARK   13  A    between atoms: C_15  and  C_20 
REMARK   14  A    between atoms: C_18  and  C_19 
REMARK   15  A    between atoms: C_18  and  C_21 
ROOT
HETATM    1  O   UNL     1      32.643 -20.270  -9.342  1.00  0.00    -0.776 OA
HETATM    2  H   UNL     1      33.401 -20.732  -9.728  1.00  0.00     0.167 HD
ENDROOT
BRANCH   1   3
HETATM    3  C   UNL     1      31.390 -20.467  -9.803  1.00  0.00     0.139 C 
HETATM    4  O   UNL     1      31.213 -20.865 -10.945  1.00  0.00    -0.650 OA
BRANCH   3   5
HETATM    5  C   UNL     1      30.213 -20.185  -8.910  1.00  0.00     0.110 C 
BRANCH   5   6
HETATM    6  C   UNL     1      30.388 -18.891  -8.103  1.00  0.00     0.014 C 
BRANCH   6   7
HETATM    7  C   UNL     1      29.858 -17.656  -8.844  1.00  0.00     0.027 C 
BRANCH   7   8
HETATM    8  C   UNL     1      31.007 -16.913  -9.478  1.00  0.00    -0.030 C 
HETATM    9  C   UNL     1      31.207 -16.777 -10.803  1.00  0.00    -0.027 C 
BRANCH   9  10
HETATM   10  C   UNL     1      30.307 -17.321 -11.883  1.00  0.00     0.053 C 
BRANCH  10  11
HETATM   11  C   UNL     1      30.914 -17.122 -13.254  1.00  0.00    -0.027 C 
HETATM   12  C   UNL     1      30.425 -16.379 -14.268  1.00  0.00    -0.027 C 
BRANCH  12  13
HETATM   13  C   UNL     1      29.163 -15.555 -14.263  1.00  0.00     0.053 C 
BRANCH  13  14
HETATM   14  C   UNL     1      29.505 -14.085 -14.211  1.00  0.00    -0.027 C 
HETATM   15  C   UNL     1      29.421 -13.310 -13.111  1.00  0.00    -0.027 C 
BRANCH  15  16
HETATM   16  C   UNL     1      28.953 -13.790 -11.761  1.00  0.00     0.053 C 
BRANCH  16  17
HETATM   17  C   UNL     1      29.825 -13.256 -10.652  1.00  0.00    -0.027 C 
HETATM   18  C   UNL     1      29.553 -13.409  -9.345  1.00  0.00    -0.030 C 
BRANCH  18  19
HETATM   19  C   UNL     1      28.341 -14.119  -8.796  1.00  0.00     0.027 C 
BRANCH  19  20
HETATM   20  C   UNL     1      28.556 -14.432  -7.312  1.00  0.00     0.004 C 
BRANCH  20  21
HETATM   21  C   UNL     1      27.709 -13.515  -6.423  1.00  0.00    -0.000 C 
BRANCH  21  22
HETATM   22  C   UNL     1      28.529 -12.312  -5.941  1.00  0.00    -0.005 C 
HETATM   23  C   UNL     1      29.120 -12.566  -4.558  1.00  0.00     0.005 C 
ENDBRANCH  21  22
ENDBRANCH  20  21
ENDBRANCH  19  20
ENDBRANCH  18  19
ENDBRANCH  16  17
ENDBRANCH  15  16
ENDBRANCH  13  14
ENDBRANCH  12  13
ENDBRANCH  10  11
ENDBRANCH   9  10
ENDBRANCH   7   8
ENDBRANCH   6   7
ENDBRANCH   5   6
ENDBRANCH   3   5
ENDBRANCH   1   3
TORSDOF 15
ENDMDL
MODEL 20
REMARK VINA RESULT:      -4.8      3.764      6.814
REMARK  15 active torsions:
REMARK  status: ('A' for Active; 'I' for Inactive)
REMARK    1  A    between atoms: O_1  and  C_22 
REMARK    2  A    between atoms: C_3  and  C_4 
REMARK    3  A    between atoms: C_3  and  C_5 
REMARK    4  A    between atoms: C_4  and  C_6 
REMARK    5  A    between atoms: C_5  and  C_7 
REMARK    6  A    between atoms: C_9  and  C_10 
REMARK    7  A    between atoms: C_9  and  C_13 
REMARK    8  A    between atoms: C_10  and  C_14 
REMARK    9  A    between atoms: C_11  and  C_12 
REMARK   10  A    between atoms: C_12  and  C_16 
REMARK   11  A    between atoms: C_13  and  C_22 
REMARK   12  A    between atoms: C_15  and  C_17 
REMARK   13  A    between atoms: C_15  and  C_20 
REMARK   14  A    between atoms: C_18  and  C_19 
REMARK   15  A    between atoms: C_18  and  C_21 
ROOT
HETATM    1  O   UNL     1      32.086 -20.783  -5.366  1.00  0.00    -0.776 OA
HETATM    2  H   UNL     1      31.932 -21.449  -4.682  1.00  0.00     0.167 HD
ENDROOT
BRANCH   1   3
HETATM    3  C   UNL     1      31.060 -20.153  -5.976  1.00  0.00     0.139 C 
HETATM    4  O   UNL     1      30.215 -19.571  -5.311  1.00  0.00    -0.650 OA
BRANCH   3   5
HETATM    5  C   UNL     1      30.952 -20.179  -7.476  1.00  0.00     0.110 C 
BRANCH   5   6
HETATM    6  C   UNL     1      30.023 -19.082  -8.015  1.00  0.00     0.014 C 
BRANCH   6   7
HETATM    7  C   UNL     1      30.782 -17.812  -8.420  1.00  0.00     0.027 C 
BRANCH   7   8
HETATM    8  C   UNL     1      29.852 -16.878  -9.155  1.00  0.00    -0.030 C 
HETATM    9  C   UNL     1      29.945 -16.557 -10.459  1.00  0.00    -0.027 C 
BRANCH   9  10
HETATM   10  C   UNL     1      30.977 -17.092 -11.420  1.00  0.00     0.053 C 
BRANCH  10  11
HETATM   11  C   UNL     1      30.804 -18.578 -11.639  1.00  0.00    -0.027 C 
HETATM   12  C   UNL     1      30.257 -19.192 -12.708  1.00  0.00    -0.027 C 
BRANCH  12  13
HETATM   13  C   UNL     1      29.708 -18.535 -13.949  1.00  0.00     0.053 C 
BRANCH  13  14
HETATM   14  C   UNL     1      30.841 -18.087 -14.842  1.00  0.00    -0.027 C 
HETATM   15  C   UNL     1      30.983 -16.845 -15.347  1.00  0.00    -0.027 C 
BRANCH  15  16
HETATM   16  C   UNL     1      30.019 -15.711 -15.110  1.00  0.00     0.053 C 
BRANCH  16  17
HETATM   17  C   UNL     1      30.583 -14.698 -14.146  1.00  0.00    -0.027 C 
HETATM   18  C   UNL     1      29.851 -14.058 -13.218  1.00  0.00    -0.030 C 
BRANCH  18  19
HETATM   19  C   UNL     1      28.369 -14.245 -13.011  1.00  0.00     0.027 C 
BRANCH  19  20
HETATM   20  C   UNL     1      27.938 -13.548 -11.717  1.00  0.00     0.004 C 
BRANCH  20  21
HETATM   21  C   UNL     1      29.112 -12.809 -11.066  1.00  0.00    -0.000 C 
BRANCH  21  22
HETATM   22  C   UNL     1      29.104 -13.003  -9.545  1.00  0.00    -0.005 C 
HETATM   23  C   UNL     1      27.865 -13.771  -9.094  1.00  0.00     0.005 C 
ENDBRANCH  21  22
ENDBRANCH  20  21
ENDBRANCH  19  20
ENDBRANCH  18  19
ENDBRANCH  16  17
ENDBRANCH  15  16
ENDBRANCH  13  14
ENDBRANCH  12  13
ENDBRANCH  10  11
ENDBRANCH   9  10
ENDBRANCH   7   8
ENDBRANCH   6   7
ENDBRANCH   5   6
ENDBRANCH   3   5
ENDBRANCH   1   3
TORSDOF 15
ENDMDL
