MODEL 1
REMARK VINA RESULT:      -4.0      0.000      0.000
REMARK  15 active torsions:
REMARK  status: ('A' for Active; 'I' for Inactive)
REMARK    1  A    between atoms: O_1  and  C_18 
REMARK    2  A    between atoms: C_3  and  C_4 
REMARK    3  A    between atoms: C_3  and  C_5 
REMARK    4  A    between atoms: C_4  and  C_6 
REMARK    5  A    between atoms: C_5  and  C_7 
REMARK    6  A    between atoms: C_6  and  C_8 
REMARK    7  A    between atoms: C_7  and  C_9 
REMARK    8  A    between atoms: C_8  and  C_10 
REMARK    9  A    between atoms: C_9  and  C_11 
REMARK   10  A    between atoms: C_10  and  C_12 
REMARK   11  A    between atoms: C_11  and  C_13 
REMARK   12  A    between atoms: C_12  and  C_14 
REMARK   13  A    between atoms: C_13  and  C_15 
REMARK   14  A    between atoms: C_14  and  C_16 
REMARK   15  A    between atoms: C_16  and  C_18 
ROOT
HETATM    1  O   UNL     1      38.742   6.232 -10.068  1.00  0.00    -0.776 OA
HETATM    2  H   UNL     1      38.836   5.323  -9.752  1.00  0.00     0.167 HD
ENDROOT
BRANCH   1   3
HETATM    3  C   UNL     1      39.056   7.286  -9.285  1.00  0.00     0.139 C 
HETATM    4  O   UNL     1      39.890   7.158  -8.400  1.00  0.00    -0.650 OA
BRANCH   3   5
HETATM    5  C   UNL     1      38.365   8.604  -9.524  1.00  0.00     0.110 C 
BRANCH   5   6
HETATM    6  C   UNL     1      37.306   8.538 -10.635  1.00  0.00     0.010 C 
BRANCH   6   7
HETATM    7  C   UNL     1      37.896   8.972 -11.982  1.00  0.00     0.001 C 
BRANCH   7   8
HETATM    8  C   UNL     1      38.782  10.213 -11.820  1.00  0.00     0.000 C 
BRANCH   8   9
HETATM    9  C   UNL     1      40.106  10.047 -12.576  1.00  0.00     0.000 C 
BRANCH   9  10
HETATM   10  C   UNL     1      40.448   8.565 -12.767  1.00  0.00     0.000 C 
BRANCH  10  11
HETATM   11  C   UNL     1      41.045   8.313 -14.156  1.00  0.00     0.000 C 
BRANCH  11  12
HETATM   12  C   UNL     1      41.263   9.630 -14.910  1.00  0.00     0.000 C 
BRANCH  12  13
HETATM   13  C   UNL     1      40.608   9.586 -16.295  1.00  0.00     0.000 C 
BRANCH  13  14
HETATM   14  C   UNL     1      39.656   8.389 -16.416  1.00  0.00     0.000 C 
BRANCH  14  15
HETATM   15  C   UNL     1      38.245   8.845 -16.805  1.00  0.00     0.000 C 
BRANCH  15  16
HETATM   16  C   UNL     1      37.291   8.764 -15.608  1.00  0.00     0.000 C 
BRANCH  16  17
HETATM   17  C   UNL     1      36.575  10.102 -15.383  1.00  0.00    -0.000 C 
BRANCH  17  18
HETATM   18  C   UNL     1      37.365  11.259 -16.004  1.00  0.00    -0.005 C 
HETATM   19  C   UNL     1      38.059  12.092 -14.930  1.00  0.00     0.005 C 
ENDBRANCH  17  18
ENDBRANCH  16  17
ENDBRANCH  15  16
ENDBRANCH  14  15
ENDBRANCH  13  14
ENDBRANCH  12  13
ENDBRANCH  11  12
ENDBRANCH  10  11
ENDBRANCH   9  10
ENDBRANCH   8   9
ENDBRANCH   7   8
ENDBRANCH   6   7
ENDBRANCH   5   6
ENDBRANCH   3   5
ENDBRANCH   1   3
TORSDOF 15
ENDMDL
MODEL 2
REMARK VINA RESULT:      -4.0      4.167      7.642
REMARK  15 active torsions:
REMARK  status: ('A' for Active; 'I' for Inactive)
REMARK    1  A    between atoms: O_1  and  C_18 
REMARK    2  A    between atoms: C_3  and  C_4 
REMARK    3  A    between atoms: C_3  and  C_5 
REMARK    4  A    between atoms: C_4  and  C_6 
REMARK    5  A    between atoms: C_5  and  C_7 
REMARK    6  A    between atoms: C_6  and  C_8 
REMARK    7  A    between atoms: C_7  and  C_9 
REMARK    8  A    between atoms: C_8  and  C_10 
REMARK    9  A    between atoms: C_9  and  C_11 
REMARK   10  A    between atoms: C_10  and  C_12 
REMARK   11  A    between atoms: C_11  and  C_13 
REMARK   12  A    between atoms: C_12  and  C_14 
REMARK   13  A    between atoms: C_13  and  C_15 
REMARK   14  A    between atoms: C_14  and  C_16 
REMARK   15  A    between atoms: C_16  and  C_18 
ROOT
HETATM    1  O   UNL     1      38.860   5.988 -19.907  1.00  0.00    -0.776 OA
HETATM    2  H   UNL     1      38.356   5.265 -20.305  1.00  0.00     0.167 HD
ENDROOT
BRANCH   1   3
HETATM    3  C   UNL     1      39.324   7.015 -20.651  1.00  0.00     0.139 C 
HETATM    4  O   UNL     1      39.464   6.876 -21.858  1.00  0.00    -0.650 OA
BRANCH   3   5
HETATM    5  C   UNL     1      39.662   8.316 -19.970  1.00  0.00     0.110 C 
BRANCH   5   6
HETATM    6  C   UNL     1      41.015   8.284 -19.243  1.00  0.00     0.010 C 
BRANCH   6   7
HETATM    7  C   UNL     1      41.215   9.546 -18.397  1.00  0.00     0.001 C 
BRANCH   7   8
HETATM    8  C   UNL     1      40.181   9.619 -17.266  1.00  0.00     0.000 C 
BRANCH   8   9
HETATM    9  C   UNL     1      40.470   8.567 -16.188  1.00  0.00     0.000 C 
BRANCH   9  10
HETATM   10  C   UNL     1      39.269   7.633 -15.996  1.00  0.00     0.000 C 
BRANCH  10  11
HETATM   11  C   UNL     1      38.897   7.513 -14.513  1.00  0.00     0.000 C 
BRANCH  11  12
HETATM   12  C   UNL     1      38.159   8.765 -14.026  1.00  0.00     0.000 C 
BRANCH  12  13
HETATM   13  C   UNL     1      38.454   9.038 -12.547  1.00  0.00     0.000 C 
BRANCH  13  14
HETATM   14  C   UNL     1      38.803   7.741 -11.807  1.00  0.00     0.000 C 
BRANCH  14  15
HETATM   15  C   UNL     1      38.140   7.700 -10.425  1.00  0.00     0.000 C 
BRANCH  15  16
HETATM   16  C   UNL     1      39.100   7.139  -9.371  1.00  0.00     0.000 C 
BRANCH  16  17
HETATM   17  C   UNL     1      39.136   8.034  -8.126  1.00  0.00    -0.000 C 
BRANCH  17  18
HETATM   18  C   UNL     1      40.033   9.256  -8.353  1.00  0.00    -0.005 C 
HETATM   19  C   UNL     1      41.294   8.878  -9.124  1.00  0.00     0.005 C 
ENDBRANCH  17  18
ENDBRANCH  16  17
ENDBRANCH  15  16
ENDBRANCH  14  15
ENDBRANCH  13  14
ENDBRANCH  12  13
ENDBRANCH  11  12
ENDBRANCH  10  11
ENDBRANCH   9  10
ENDBRANCH   8   9
ENDBRANCH   7   8
ENDBRANCH   6   7
ENDBRANCH   5   6
ENDBRANCH   3   5
ENDBRANCH   1   3
TORSDOF 15
ENDMDL
MODEL 3
REMARK VINA RESULT:      -3.7      3.459      7.675
REMARK  15 active torsions:
REMARK  status: ('A' for Active; 'I' for Inactive)
REMARK    1  A    between atoms: O_1  and  C_18 
REMARK    2  A    between atoms: C_3  and  C_4 
REMARK    3  A    between atoms: C_3  and  C_5 
REMARK    4  A    between atoms: C_4  and  C_6 
REMARK    5  A    between atoms: C_5  and  C_7 
REMARK    6  A    between atoms: C_6  and  C_8 
REMARK    7  A    between atoms: C_7  and  C_9 
REMARK    8  A    between atoms: C_8  and  C_10 
REMARK    9  A    between atoms: C_9  and  C_11 
REMARK   10  A    between atoms: C_10  and  C_12 
REMARK   11  A    between atoms: C_11  and  C_13 
REMARK   12  A    between atoms: C_12  and  C_14 
REMARK   13  A    between atoms: C_13  and  C_15 
REMARK   14  A    between atoms: C_14  and  C_16 
REMARK   15  A    between atoms: C_16  and  C_18 
ROOT
HETATM    1  O   UNL     1      37.469   8.983 -16.466  1.00  0.00    -0.776 OA
HETATM    2  H   UNL     1      36.682   8.459 -16.670  1.00  0.00     0.167 HD
ENDROOT
BRANCH   1   3
HETATM    3  C   UNL     1      38.707   8.550 -16.786  1.00  0.00     0.139 C 
HETATM    4  O   UNL     1      39.437   9.250 -17.473  1.00  0.00    -0.650 OA
BRANCH   3   5
HETATM    5  C   UNL     1      39.162   7.204 -16.285  1.00  0.00     0.110 C 
BRANCH   5   6
HETATM    6  C   UNL     1      38.851   6.978 -14.797  1.00  0.00     0.010 C 
BRANCH   6   7
HETATM    7  C   UNL     1      39.943   7.585 -13.909  1.00  0.00     0.001 C 
BRANCH   7   8
HETATM    8  C   UNL     1      39.361   8.070 -12.575  1.00  0.00     0.000 C 
BRANCH   8   9
HETATM    9  C   UNL     1      39.369   6.948 -11.530  1.00  0.00     0.000 C 
BRANCH   9  10
HETATM   10  C   UNL     1      38.582   7.356 -10.280  1.00  0.00     0.000 C 
BRANCH  10  11
HETATM   11  C   UNL     1      37.567   8.458 -10.604  1.00  0.00     0.000 C 
BRANCH  11  12
HETATM   12  C   UNL     1      37.479   9.479  -9.463  1.00  0.00     0.000 C 
BRANCH  12  13
HETATM   13  C   UNL     1      38.838  10.143  -9.212  1.00  0.00     0.000 C 
BRANCH  13  14
HETATM   14  C   UNL     1      39.132  10.242  -7.710  1.00  0.00     0.000 C 
BRANCH  14  15
HETATM   15  C   UNL     1      40.515   9.667  -7.380  1.00  0.00     0.000 C 
BRANCH  15  16
HETATM   16  C   UNL     1      40.429   8.648  -6.238  1.00  0.00     0.000 C 
BRANCH  16  17
HETATM   17  C   UNL     1      39.465   7.508  -6.589  1.00  0.00    -0.000 C 
BRANCH  17  18
HETATM   18  C   UNL     1      38.476   7.252  -5.446  1.00  0.00    -0.005 C 
HETATM   19  C   UNL     1      39.176   7.304  -4.090  1.00  0.00     0.005 C 
ENDBRANCH  17  18
ENDBRANCH  16  17
ENDBRANCH  15  16
ENDBRANCH  14  15
ENDBRANCH  13  14
ENDBRANCH  12  13
ENDBRANCH  11  12
ENDBRANCH  10  11
ENDBRANCH   9  10
ENDBRANCH   8   9
ENDBRANCH   7   8
ENDBRANCH   6   7
ENDBRANCH   5   6
ENDBRANCH   3   5
ENDBRANCH   1   3
TORSDOF 15
ENDMDL
MODEL 4
REMARK VINA RESULT:      -3.7     27.128     29.655
REMARK  15 active torsions:
REMARK  status: ('A' for Active; 'I' for Inactive)
REMARK    1  A    between atoms: O_1  and  C_18 
REMARK    2  A    between atoms: C_3  and  C_4 
REMARK    3  A    between atoms: C_3  and  C_5 
REMARK    4  A    between atoms: C_4  and  C_6 
REMARK    5  A    between atoms: C_5  and  C_7 
REMARK    6  A    between atoms: C_6  and  C_8 
REMARK    7  A    between atoms: C_7  and  C_9 
REMARK    8  A    between atoms: C_8  and  C_10 
REMARK    9  A    between atoms: C_9  and  C_11 
REMARK   10  A    between atoms: C_10  and  C_12 
REMARK   11  A    between atoms: C_11  and  C_13 
REMARK   12  A    between atoms: C_12  and  C_14 
REMARK   13  A    between atoms: C_13  and  C_15 
REMARK   14  A    between atoms: C_14  and  C_16 
REMARK   15  A    between atoms: C_16  and  C_18 
ROOT
HETATM    1  O   UNL     1      29.894 -21.039 -13.875  1.00  0.00    -0.776 OA
HETATM    2  H   UNL     1      30.059 -21.510 -14.704  1.00  0.00     0.167 HD
ENDROOT
BRANCH   1   3
HETATM    3  C   UNL     1      30.858 -20.305 -13.279  1.00  0.00     0.139 C 
HETATM    4  O   UNL     1      31.695 -19.732 -13.962  1.00  0.00    -0.650 OA
BRANCH   3   5
HETATM    5  C   UNL     1      30.878 -20.208 -11.775  1.00  0.00     0.110 C 
BRANCH   5   6
HETATM    6  C   UNL     1      30.500 -18.812 -11.256  1.00  0.00     0.010 C 
BRANCH   6   7
HETATM    7  C   UNL     1      30.563 -18.760  -9.725  1.00  0.00     0.001 C 
BRANCH   7   8
HETATM    8  C   UNL     1      30.203 -20.120  -9.113  1.00  0.00     0.000 C 
BRANCH   8   9
HETATM    9  C   UNL     1      30.971 -20.356  -7.807  1.00  0.00     0.000 C 
BRANCH   9  10
HETATM   10  C   UNL     1      30.468 -19.425  -6.698  1.00  0.00     0.000 C 
BRANCH  10  11
HETATM   11  C   UNL     1      30.682 -20.051  -5.314  1.00  0.00     0.000 C 
BRANCH  11  12
HETATM   12  C   UNL     1      29.929 -19.269  -4.232  1.00  0.00     0.000 C 
BRANCH  12  13
HETATM   13  C   UNL     1      30.673 -17.980  -3.866  1.00  0.00     0.000 C 
BRANCH  13  14
HETATM   14  C   UNL     1      29.842 -16.743  -4.227  1.00  0.00     0.000 C 
BRANCH  14  15
HETATM   15  C   UNL     1      30.494 -15.955  -5.369  1.00  0.00     0.000 C 
BRANCH  15  16
HETATM   16  C   UNL     1      29.582 -15.916  -6.601  1.00  0.00     0.000 C 
BRANCH  16  17
HETATM   17  C   UNL     1      29.225 -14.473  -6.976  1.00  0.00    -0.000 C 
BRANCH  17  18
HETATM   18  C   UNL     1      27.890 -14.055  -6.349  1.00  0.00    -0.005 C 
HETATM   19  C   UNL     1      27.962 -12.635  -5.794  1.00  0.00     0.005 C 
ENDBRANCH  17  18
ENDBRANCH  16  17
ENDBRANCH  15  16
ENDBRANCH  14  15
ENDBRANCH  13  14
ENDBRANCH  12  13
ENDBRANCH  11  12
ENDBRANCH  10  11
ENDBRANCH   9  10
ENDBRANCH   8   9
ENDBRANCH   7   8
ENDBRANCH   6   7
ENDBRANCH   5   6
ENDBRANCH   3   5
ENDBRANCH   1   3
TORSDOF 15
ENDMDL
MODEL 5
REMARK VINA RESULT:      -3.7      2.023      3.975
REMARK  15 active torsions:
REMARK  status: ('A' for Active; 'I' for Inactive)
REMARK    1  A    between atoms: O_1  and  C_18 
REMARK    2  A    between atoms: C_3  and  C_4 
REMARK    3  A    between atoms: C_3  and  C_5 
REMARK    4  A    between atoms: C_4  and  C_6 
REMARK    5  A    between atoms: C_5  and  C_7 
REMARK    6  A    between atoms: C_6  and  C_8 
REMARK    7  A    between atoms: C_7  and  C_9 
REMARK    8  A    between atoms: C_8  and  C_10 
REMARK    9  A    between atoms: C_9  and  C_11 
REMARK   10  A    between atoms: C_10  and  C_12 
REMARK   11  A    between atoms: C_11  and  C_13 
REMARK   12  A    between atoms: C_12  and  C_14 
REMARK   13  A    between atoms: C_13  and  C_15 
REMARK   14  A    between atoms: C_14  and  C_16 
REMARK   15  A    between atoms: C_16  and  C_18 
ROOT
HETATM    1  O   UNL     1      39.465  11.348  -8.106  1.00  0.00    -0.776 OA
HETATM    2  H   UNL     1      40.263  11.871  -7.943  1.00  0.00     0.167 HD
ENDROOT
BRANCH   1   3
HETATM    3  C   UNL     1      39.416  10.031  -7.815  1.00  0.00     0.139 C 
HETATM    4  O   UNL     1      38.443   9.575  -7.231  1.00  0.00    -0.650 OA
BRANCH   3   5
HETATM    5  C   UNL     1      40.568   9.149  -8.221  1.00  0.00     0.110 C 
BRANCH   5   6
HETATM    6  C   UNL     1      40.122   7.766  -8.720  1.00  0.00     0.010 C 
BRANCH   6   7
HETATM    7  C   UNL     1      40.507   7.562 -10.190  1.00  0.00     0.001 C 
BRANCH   7   8
HETATM    8  C   UNL     1      39.268   7.283 -11.050  1.00  0.00     0.000 C 
BRANCH   8   9
HETATM    9  C   UNL     1      37.980   7.566 -10.268  1.00  0.00     0.000 C 
BRANCH   9  10
HETATM   10  C   UNL     1      37.297   8.841 -10.776  1.00  0.00     0.000 C 
BRANCH  10  11
HETATM   11  C   UNL     1      38.063   9.440 -11.961  1.00  0.00     0.000 C 
BRANCH  11  12
HETATM   12  C   UNL     1      38.772  10.739 -11.560  1.00  0.00     0.000 C 
BRANCH  12  13
HETATM   13  C   UNL     1      39.848  11.118 -12.583  1.00  0.00     0.000 C 
BRANCH  13  14
HETATM   14  C   UNL     1      41.132  10.309 -12.357  1.00  0.00     0.000 C 
BRANCH  14  15
HETATM   15  C   UNL     1      41.716   9.819 -13.688  1.00  0.00     0.000 C 
BRANCH  15  16
HETATM   16  C   UNL     1      41.022   8.534 -14.152  1.00  0.00     0.000 C 
BRANCH  16  17
HETATM   17  C   UNL     1      40.375   8.724 -15.529  1.00  0.00    -0.000 C 
BRANCH  17  18
HETATM   18  C   UNL     1      38.866   8.460 -15.469  1.00  0.00    -0.005 C 
HETATM   19  C   UNL     1      38.575   7.018 -15.060  1.00  0.00     0.005 C 
ENDBRANCH  17  18
ENDBRANCH  16  17
ENDBRANCH  15  16
ENDBRANCH  14  15
ENDBRANCH  13  14
ENDBRANCH  12  13
ENDBRANCH  11  12
ENDBRANCH  10  11
ENDBRANCH   9  10
ENDBRANCH   8   9
ENDBRANCH   7   8
ENDBRANCH   6   7
ENDBRANCH   5   6
ENDBRANCH   3   5
ENDBRANCH   1   3
TORSDOF 15
ENDMDL
MODEL 6
REMARK VINA RESULT:      -3.6      2.218      3.620
REMARK  15 active torsions:
REMARK  status: ('A' for Active; 'I' for Inactive)
REMARK    1  A    between atoms: O_1  and  C_18 
REMARK    2  A    between atoms: C_3  and  C_4 
REMARK    3  A    between atoms: C_3  and  C_5 
REMARK    4  A    between atoms: C_4  and  C_6 
REMARK    5  A    between atoms: C_5  and  C_7 
REMARK    6  A    between atoms: C_6  and  C_8 
REMARK    7  A    between atoms: C_7  and  C_9 
REMARK    8  A    between atoms: C_8  and  C_10 
REMARK    9  A    between atoms: C_9  and  C_11 
REMARK   10  A    between atoms: C_10  and  C_12 
REMARK   11  A    between atoms: C_11  and  C_13 
REMARK   12  A    between atoms: C_12  and  C_14 
REMARK   13  A    between atoms: C_13  and  C_15 
REMARK   14  A    between atoms: C_14  and  C_16 
REMARK   15  A    between atoms: C_16  and  C_18 
ROOT
HETATM    1  O   UNL     1      37.971   8.763  -6.566  1.00  0.00    -0.776 OA
HETATM    2  H   UNL     1      37.655   9.202  -7.368  1.00  0.00     0.167 HD
ENDROOT
BRANCH   1   3
HETATM    3  C   UNL     1      39.167   8.137  -6.530  1.00  0.00     0.139 C 
HETATM    4  O   UNL     1      39.217   6.918  -6.608  1.00  0.00    -0.650 OA
BRANCH   3   5
HETATM    5  C   UNL     1      40.420   8.963  -6.395  1.00  0.00     0.110 C 
BRANCH   5   6
HETATM    6  C   UNL     1      40.573  10.012  -7.507  1.00  0.00     0.010 C 
BRANCH   6   7
HETATM    7  C   UNL     1      41.504   9.507  -8.615  1.00  0.00     0.001 C 
BRANCH   7   8
HETATM    8  C   UNL     1      40.715   8.760  -9.698  1.00  0.00     0.000 C 
BRANCH   8   9
HETATM    9  C   UNL     1      39.402   9.484 -10.021  1.00  0.00     0.000 C 
BRANCH   9  10
HETATM   10  C   UNL     1      38.517   8.634 -10.941  1.00  0.00     0.000 C 
BRANCH  10  11
HETATM   11  C   UNL     1      39.198   7.304 -11.283  1.00  0.00     0.000 C 
BRANCH  11  12
HETATM   12  C   UNL     1      39.419   7.171 -12.795  1.00  0.00     0.000 C 
BRANCH  12  13
HETATM   13  C   UNL     1      40.444   8.194 -13.294  1.00  0.00     0.000 C 
BRANCH  13  14
HETATM   14  C   UNL     1      40.043   8.751 -14.665  1.00  0.00     0.000 C 
BRANCH  14  15
HETATM   15  C   UNL     1      38.522   8.715 -14.851  1.00  0.00     0.000 C 
BRANCH  15  16
HETATM   16  C   UNL     1      38.127   7.752 -15.977  1.00  0.00     0.000 C 
BRANCH  16  17
HETATM   17  C   UNL     1      39.365   7.087 -16.590  1.00  0.00    -0.000 C 
BRANCH  17  18
HETATM   18  C   UNL     1      39.475   7.402 -18.086  1.00  0.00    -0.005 C 
HETATM   19  C   UNL     1      40.435   8.562 -18.336  1.00  0.00     0.005 C 
ENDBRANCH  17  18
ENDBRANCH  16  17
ENDBRANCH  15  16
ENDBRANCH  14  15
ENDBRANCH  13  14
ENDBRANCH  12  13
ENDBRANCH  11  12
ENDBRANCH  10  11
ENDBRANCH   9  10
ENDBRANCH   8   9
ENDBRANCH   7   8
ENDBRANCH   6   7
ENDBRANCH   5   6
ENDBRANCH   3   5
ENDBRANCH   1   3
TORSDOF 15
ENDMDL
MODEL 7
REMARK VINA RESULT:      -3.6     27.358     28.818
REMARK  15 active torsions:
REMARK  status: ('A' for Active; 'I' for Inactive)
REMARK    1  A    between atoms: O_1  and  C_18 
REMARK    2  A    between atoms: C_3  and  C_4 
REMARK    3  A    between atoms: C_3  and  C_5 
REMARK    4  A    between atoms: C_4  and  C_6 
REMARK    5  A    between atoms: C_5  and  C_7 
REMARK    6  A    between atoms: C_6  and  C_8 
REMARK    7  A    between atoms: C_7  and  C_9 
REMARK    8  A    between atoms: C_8  and  C_10 
REMARK    9  A    between atoms: C_9  and  C_11 
REMARK   10  A    between atoms: C_10  and  C_12 
REMARK   11  A    between atoms: C_11  and  C_13 
REMARK   12  A    between atoms: C_12  and  C_14 
REMARK   13  A    between atoms: C_13  and  C_15 
REMARK   14  A    between atoms: C_14  and  C_16 
REMARK   15  A    between atoms: C_16  and  C_18 
ROOT
HETATM    1  O   UNL     1      31.560 -21.284 -19.992  1.00  0.00    -0.776 OA
HETATM    2  H   UNL     1      31.042 -21.718 -19.300  1.00  0.00     0.167 HD
ENDROOT
BRANCH   1   3
HETATM    3  C   UNL     1      31.024 -20.323 -20.775  1.00  0.00     0.139 C 
HETATM    4  O   UNL     1      31.030 -20.457 -21.991  1.00  0.00    -0.650 OA
BRANCH   3   5
HETATM    5  C   UNL     1      30.428 -19.101 -20.127  1.00  0.00     0.110 C 
BRANCH   5   6
HETATM    6  C   UNL     1      29.740 -19.404 -18.787  1.00  0.00     0.010 C 
BRANCH   6   7
HETATM    7  C   UNL     1      30.674 -19.105 -17.609  1.00  0.00     0.001 C 
BRANCH   7   8
HETATM    8  C   UNL     1      30.828 -20.333 -16.704  1.00  0.00     0.000 C 
BRANCH   8   9
HETATM    9  C   UNL     1      30.915 -19.923 -15.229  1.00  0.00     0.000 C 
BRANCH   9  10
HETATM   10  C   UNL     1      30.408 -18.490 -15.026  1.00  0.00     0.000 C 
BRANCH  10  11
HETATM   11  C   UNL     1      31.171 -17.792 -13.894  1.00  0.00     0.000 C 
BRANCH  11  12
HETATM   12  C   UNL     1      30.307 -16.713 -13.231  1.00  0.00     0.000 C 
BRANCH  12  13
HETATM   13  C   UNL     1      30.896 -15.317 -13.461  1.00  0.00     0.000 C 
BRANCH  13  14
HETATM   14  C   UNL     1      29.880 -14.398 -14.150  1.00  0.00     0.000 C 
BRANCH  14  15
HETATM   15  C   UNL     1      28.859 -15.211 -14.956  1.00  0.00     0.000 C 
BRANCH  15  16
HETATM   16  C   UNL     1      28.766 -14.702 -16.398  1.00  0.00     0.000 C 
BRANCH  16  17
HETATM   17  C   UNL     1      29.589 -15.582 -17.347  1.00  0.00    -0.000 C 
BRANCH  17  18
HETATM   18  C   UNL     1      30.959 -14.955 -17.628  1.00  0.00    -0.005 C 
HETATM   19  C   UNL     1      32.074 -15.731 -16.932  1.00  0.00     0.005 C 
ENDBRANCH  17  18
ENDBRANCH  16  17
ENDBRANCH  15  16
ENDBRANCH  14  15
ENDBRANCH  13  14
ENDBRANCH  12  13
ENDBRANCH  11  12
ENDBRANCH  10  11
ENDBRANCH   9  10
ENDBRANCH   8   9
ENDBRANCH   7   8
ENDBRANCH   6   7
ENDBRANCH   5   6
ENDBRANCH   3   5
ENDBRANCH   1   3
TORSDOF 15
ENDMDL
MODEL 8
REMARK VINA RESULT:      -3.6      4.315      6.120
REMARK  15 active torsions:
REMARK  status: ('A' for Active; 'I' for Inactive)
REMARK    1  A    between atoms: O_1  and  C_18 
REMARK    2  A    between atoms: C_3  and  C_4 
REMARK    3  A    between atoms: C_3  and  C_5 
REMARK    4  A    between atoms: C_4  and  C_6 
REMARK    5  A    between atoms: C_5  and  C_7 
REMARK    6  A    between atoms: C_6  and  C_8 
REMARK    7  A    between atoms: C_7  and  C_9 
REMARK    8  A    between atoms: C_8  and  C_10 
REMARK    9  A    between atoms: C_9  and  C_11 
REMARK   10  A    between atoms: C_10  and  C_12 
REMARK   11  A    between atoms: C_11  and  C_13 
REMARK   12  A    between atoms: C_12  and  C_14 
REMARK   13  A    between atoms: C_13  and  C_15 
REMARK   14  A    between atoms: C_14  and  C_16 
REMARK   15  A    between atoms: C_16  and  C_18 
ROOT
HETATM    1  O   UNL     1      43.888  12.003 -18.162  1.00  0.00    -0.776 OA
HETATM    2  H   UNL     1      44.127  12.388 -19.017  1.00  0.00     0.167 HD
ENDROOT
BRANCH   1   3
HETATM    3  C   UNL     1      42.731  11.329 -17.992  1.00  0.00     0.139 C 
HETATM    4  O   UNL     1      42.415  10.455 -18.787  1.00  0.00    -0.650 OA
BRANCH   3   5
HETATM    5  C   UNL     1      41.851  11.672 -16.818  1.00  0.00     0.110 C 
BRANCH   5   6
HETATM    6  C   UNL     1      41.318  10.434 -16.081  1.00  0.00     0.010 C 
BRANCH   6   7
HETATM    7  C   UNL     1      41.777  10.424 -14.619  1.00  0.00     0.001 C 
BRANCH   7   8
HETATM    8  C   UNL     1      41.330   9.139 -13.911  1.00  0.00     0.000 C 
BRANCH   8   9
HETATM    9  C   UNL     1      40.253   9.436 -12.860  1.00  0.00     0.000 C 
BRANCH   9  10
HETATM   10  C   UNL     1      38.951   8.692 -13.181  1.00  0.00     0.000 C 
BRANCH  10  11
HETATM   11  C   UNL     1      39.239   7.345 -13.856  1.00  0.00     0.000 C 
BRANCH  11  12
HETATM   12  C   UNL     1      38.469   7.214 -15.174  1.00  0.00     0.000 C 
BRANCH  12  13
HETATM   13  C   UNL     1      39.415   6.889 -16.335  1.00  0.00     0.000 C 
BRANCH  13  14
HETATM   14  C   UNL     1      39.039   7.685 -17.591  1.00  0.00     0.000 C 
BRANCH  14  15
HETATM   15  C   UNL     1      40.220   7.765 -18.567  1.00  0.00     0.000 C 
BRANCH  15  16
HETATM   16  C   UNL     1      39.736   7.707 -20.020  1.00  0.00     0.000 C 
BRANCH  16  17
HETATM   17  C   UNL     1      38.213   7.549 -20.088  1.00  0.00    -0.000 C 
BRANCH  17  18
HETATM   18  C   UNL     1      37.571   8.724 -20.834  1.00  0.00    -0.005 C 
HETATM   19  C   UNL     1      37.298   9.893 -19.892  1.00  0.00     0.005 C 
ENDBRANCH  17  18
ENDBRANCH  16  17
ENDBRANCH  15  16
ENDBRANCH  14  15
ENDBRANCH  13  14
ENDBRANCH  12  13
ENDBRANCH  11  12
ENDBRANCH  10  11
ENDBRANCH   9  10
ENDBRANCH   8   9
ENDBRANCH   7   8
ENDBRANCH   6   7
ENDBRANCH   5   6
ENDBRANCH   3   5
ENDBRANCH   1   3
TORSDOF 15
ENDMDL
MODEL 9
REMARK VINA RESULT:      -3.6     26.463     28.865
REMARK  15 active torsions:
REMARK  status: ('A' for Active; 'I' for Inactive)
REMARK    1  A    between atoms: O_1  and  C_18 
REMARK    2  A    between atoms: C_3  and  C_4 
REMARK    3  A    between atoms: C_3  and  C_5 
REMARK    4  A    between atoms: C_4  and  C_6 
REMARK    5  A    between atoms: C_5  and  C_7 
REMARK    6  A    between atoms: C_6  and  C_8 
REMARK    7  A    between atoms: C_7  and  C_9 
REMARK    8  A    between atoms: C_8  and  C_10 
REMARK    9  A    between atoms: C_9  and  C_11 
REMARK   10  A    between atoms: C_10  and  C_12 
REMARK   11  A    between atoms: C_11  and  C_13 
REMARK   12  A    between atoms: C_12  and  C_14 
REMARK   13  A    between atoms: C_13  and  C_15 
REMARK   14  A    between atoms: C_14  and  C_16 
REMARK   15  A    between atoms: C_16  and  C_18 
ROOT
HETATM    1  O   UNL     1      32.654 -20.281 -14.226  1.00  0.00    -0.776 OA
HETATM    2  H   UNL     1      32.852 -19.463 -13.748  1.00  0.00     0.167 HD
ENDROOT
BRANCH   1   3
HETATM    3  C   UNL     1      31.431 -20.516 -14.745  1.00  0.00     0.139 C 
HETATM    4  O   UNL     1      31.318 -20.796 -15.930  1.00  0.00    -0.650 OA
BRANCH   3   5
HETATM    5  C   UNL     1      30.226 -20.426 -13.845  1.00  0.00     0.110 C 
BRANCH   5   6
HETATM    6  C   UNL     1      29.789 -18.980 -13.565  1.00  0.00     0.010 C 
BRANCH   6   7
HETATM    7  C   UNL     1      30.428 -18.453 -12.275  1.00  0.00     0.001 C 
BRANCH   7   8
HETATM    8  C   UNL     1      30.627 -19.584 -11.258  1.00  0.00     0.000 C 
BRANCH   8   9
HETATM    9  C   UNL     1      31.080 -19.031  -9.902  1.00  0.00     0.000 C 
BRANCH   9  10
HETATM   10  C   UNL     1      29.878 -18.739  -8.997  1.00  0.00     0.000 C 
BRANCH  10  11
HETATM   11  C   UNL     1      30.268 -18.828  -7.517  1.00  0.00     0.000 C 
BRANCH  11  12
HETATM   12  C   UNL     1      30.970 -17.546  -7.054  1.00  0.00     0.000 C 
BRANCH  12  13
HETATM   13  C   UNL     1      29.990 -16.370  -7.000  1.00  0.00     0.000 C 
BRANCH  13  14
HETATM   14  C   UNL     1      29.637 -16.013  -5.551  1.00  0.00     0.000 C 
BRANCH  14  15
HETATM   15  C   UNL     1      30.572 -14.925  -5.008  1.00  0.00     0.000 C 
BRANCH  15  16
HETATM   16  C   UNL     1      30.672 -13.749  -5.985  1.00  0.00     0.000 C 
BRANCH  16  17
HETATM   17  C   UNL     1      29.670 -12.646  -5.623  1.00  0.00    -0.000 C 
BRANCH  17  18
HETATM   18  C   UNL     1      28.403 -12.750  -6.480  1.00  0.00    -0.005 C 
HETATM   19  C   UNL     1      27.216 -13.234  -5.652  1.00  0.00     0.005 C 
ENDBRANCH  17  18
ENDBRANCH  16  17
ENDBRANCH  15  16
ENDBRANCH  14  15
ENDBRANCH  13  14
ENDBRANCH  12  13
ENDBRANCH  11  12
ENDBRANCH  10  11
ENDBRANCH   9  10
ENDBRANCH   8   9
ENDBRANCH   7   8
ENDBRANCH   6   7
ENDBRANCH   5   6
ENDBRANCH   3   5
ENDBRANCH   1   3
TORSDOF 15
ENDMDL
MODEL 10
REMARK VINA RESULT:      -3.6      3.962      7.314
REMARK  15 active torsions:
REMARK  status: ('A' for Active; 'I' for Inactive)
REMARK    1  A    between atoms: O_1  and  C_18 
REMARK    2  A    between atoms: C_3  and  C_4 
REMARK    3  A    between atoms: C_3  and  C_5 
REMARK    4  A    between atoms: C_4  and  C_6 
REMARK    5  A    between atoms: C_5  and  C_7 
REMARK    6  A    between atoms: C_6  and  C_8 
REMARK    7  A    between atoms: C_7  and  C_9 
REMARK    8  A    between atoms: C_8  and  C_10 
REMARK    9  A    between atoms: C_9  and  C_11 
REMARK   10  A    between atoms: C_10  and  C_12 
REMARK   11  A    between atoms: C_11  and  C_13 
REMARK   12  A    between atoms: C_12  and  C_14 
REMARK   13  A    between atoms: C_13  and  C_15 
REMARK   14  A    between atoms: C_14  and  C_16 
REMARK   15  A    between atoms: C_16  and  C_18 
ROOT
HETATM    1  O   UNL     1      38.851   6.513 -19.510  1.00  0.00    -0.776 OA
HETATM    2  H   UNL     1      39.164   5.600 -19.578  1.00  0.00     0.167 HD
ENDROOT
BRANCH   1   3
HETATM    3  C   UNL     1      39.571   7.458 -18.868  1.00  0.00     0.139 C 
HETATM    4  O   UNL     1      40.577   7.915 -19.392  1.00  0.00    -0.650 OA
BRANCH   3   5
HETATM    5  C   UNL     1      39.112   7.930 -17.513  1.00  0.00     0.110 C 
BRANCH   5   6
HETATM    6  C   UNL     1      39.476   6.957 -16.380  1.00  0.00     0.010 C 
BRANCH   6   7
HETATM    7  C   UNL     1      38.503   7.096 -15.204  1.00  0.00     0.001 C 
BRANCH   7   8
HETATM    8  C   UNL     1      37.730   8.418 -15.282  1.00  0.00     0.000 C 
BRANCH   8   9
HETATM    9  C   UNL     1      37.935   9.252 -14.011  1.00  0.00     0.000 C 
BRANCH   9  10
HETATM   10  C   UNL     1      38.977   8.605 -13.092  1.00  0.00     0.000 C 
BRANCH  10  11
HETATM   11  C   UNL     1      38.303   7.865 -11.931  1.00  0.00     0.000 C 
BRANCH  11  12
HETATM   12  C   UNL     1      39.319   7.027 -11.146  1.00  0.00     0.000 C 
BRANCH  12  13
HETATM   13  C   UNL     1      38.998   7.034  -9.647  1.00  0.00     0.000 C 
BRANCH  13  14
HETATM   14  C   UNL     1      39.537   8.303  -8.975  1.00  0.00     0.000 C 
BRANCH  14  15
HETATM   15  C   UNL     1      40.894   8.705  -9.566  1.00  0.00     0.000 C 
BRANCH  15  16
HETATM   16  C   UNL     1      41.646   9.651  -8.622  1.00  0.00     0.000 C 
BRANCH  16  17
HETATM   17  C   UNL     1      40.993   9.679  -7.235  1.00  0.00    -0.000 C 
BRANCH  17  18
HETATM   18  C   UNL     1      40.726  11.118  -6.782  1.00  0.00    -0.005 C 
HETATM   19  C   UNL     1      40.983  12.109  -7.913  1.00  0.00     0.005 C 
ENDBRANCH  17  18
ENDBRANCH  16  17
ENDBRANCH  15  16
ENDBRANCH  14  15
ENDBRANCH  13  14
ENDBRANCH  12  13
ENDBRANCH  11  12
ENDBRANCH  10  11
ENDBRANCH   9  10
ENDBRANCH   8   9
ENDBRANCH   7   8
ENDBRANCH   6   7
ENDBRANCH   5   6
ENDBRANCH   3   5
ENDBRANCH   1   3
TORSDOF 15
ENDMDL
MODEL 11
REMARK VINA RESULT:      -3.6      2.730      3.745
REMARK  15 active torsions:
REMARK  status: ('A' for Active; 'I' for Inactive)
REMARK    1  A    between atoms: O_1  and  C_18 
REMARK    2  A    between atoms: C_3  and  C_4 
REMARK    3  A    between atoms: C_3  and  C_5 
REMARK    4  A    between atoms: C_4  and  C_6 
REMARK    5  A    between atoms: C_5  and  C_7 
REMARK    6  A    between atoms: C_6  and  C_8 
REMARK    7  A    between atoms: C_7  and  C_9 
REMARK    8  A    between atoms: C_8  and  C_10 
REMARK    9  A    between atoms: C_9  and  C_11 
REMARK   10  A    between atoms: C_10  and  C_12 
REMARK   11  A    between atoms: C_11  and  C_13 
REMARK   12  A    between atoms: C_12  and  C_14 
REMARK   13  A    between atoms: C_13  and  C_15 
REMARK   14  A    between atoms: C_14  and  C_16 
REMARK   15  A    between atoms: C_16  and  C_18 
ROOT
HETATM    1  O   UNL     1      41.025   9.958 -10.416  1.00  0.00    -0.776 OA
HETATM    2  H   UNL     1      41.048  10.850 -10.789  1.00  0.00     0.167 HD
ENDROOT
BRANCH   1   3
HETATM    3  C   UNL     1      41.071   9.750  -9.083  1.00  0.00     0.139 C 
HETATM    4  O   UNL     1      42.017  10.174  -8.435  1.00  0.00    -0.650 OA
BRANCH   3   5
HETATM    5  C   UNL     1      39.946   8.997  -8.421  1.00  0.00     0.110 C 
BRANCH   5   6
HETATM    6  C   UNL     1      39.899   7.513  -8.817  1.00  0.00     0.010 C 
BRANCH   6   7
HETATM    7  C   UNL     1      38.789   7.253  -9.842  1.00  0.00     0.001 C 
BRANCH   7   8
HETATM    8  C   UNL     1      39.377   6.832 -11.195  1.00  0.00     0.000 C 
BRANCH   8   9
HETATM    9  C   UNL     1      38.976   7.817 -12.300  1.00  0.00     0.000 C 
BRANCH   9  10
HETATM   10  C   UNL     1      39.708   7.502 -13.610  1.00  0.00     0.000 C 
BRANCH  10  11
HETATM   11  C   UNL     1      38.731   6.995 -14.678  1.00  0.00     0.000 C 
BRANCH  11  12
HETATM   12  C   UNL     1      37.995   8.160 -15.350  1.00  0.00     0.000 C 
BRANCH  12  13
HETATM   13  C   UNL     1      38.674   8.554 -16.666  1.00  0.00     0.000 C 
BRANCH  13  14
HETATM   14  C   UNL     1      39.431   7.365 -17.272  1.00  0.00     0.000 C 
BRANCH  14  15
HETATM   15  C   UNL     1      39.301   7.351 -18.800  1.00  0.00     0.000 C 
BRANCH  15  16
HETATM   16  C   UNL     1      38.577   8.605 -19.302  1.00  0.00     0.000 C 
BRANCH  16  17
HETATM   17  C   UNL     1      37.591   8.260 -20.424  1.00  0.00    -0.000 C 
BRANCH  17  18
HETATM   18  C   UNL     1      37.684   9.275 -21.569  1.00  0.00    -0.005 C 
HETATM   19  C   UNL     1      39.068   9.914 -21.629  1.00  0.00     0.005 C 
ENDBRANCH  17  18
ENDBRANCH  16  17
ENDBRANCH  15  16
ENDBRANCH  14  15
ENDBRANCH  13  14
ENDBRANCH  12  13
ENDBRANCH  11  12
ENDBRANCH  10  11
ENDBRANCH   9  10
ENDBRANCH   8   9
ENDBRANCH   7   8
ENDBRANCH   6   7
ENDBRANCH   5   6
ENDBRANCH   3   5
ENDBRANCH   1   3
TORSDOF 15
ENDMDL
MODEL 12
REMARK VINA RESULT:      -3.6      4.115      8.315
REMARK  15 active torsions:
REMARK  status: ('A' for Active; 'I' for Inactive)
REMARK    1  A    between atoms: O_1  and  C_18 
REMARK    2  A    between atoms: C_3  and  C_4 
REMARK    3  A    between atoms: C_3  and  C_5 
REMARK    4  A    between atoms: C_4  and  C_6 
REMARK    5  A    between atoms: C_5  and  C_7 
REMARK    6  A    between atoms: C_6  and  C_8 
REMARK    7  A    between atoms: C_7  and  C_9 
REMARK    8  A    between atoms: C_8  and  C_10 
REMARK    9  A    between atoms: C_9  and  C_11 
REMARK   10  A    between atoms: C_10  and  C_12 
REMARK   11  A    between atoms: C_11  and  C_13 
REMARK   12  A    between atoms: C_12  and  C_14 
REMARK   13  A    between atoms: C_13  and  C_15 
REMARK   14  A    between atoms: C_14  and  C_16 
REMARK   15  A    between atoms: C_16  and  C_18 
ROOT
HETATM    1  O   UNL     1      41.380   8.946 -18.866  1.00  0.00    -0.776 OA
HETATM    2  H   UNL     1      42.230   9.406 -18.903  1.00  0.00     0.167 HD
ENDROOT
BRANCH   1   3
HETATM    3  C   UNL     1      40.653   8.901 -17.729  1.00  0.00     0.139 C 
HETATM    4  O   UNL     1      40.870   9.709 -16.837  1.00  0.00    -0.650 OA
BRANCH   3   5
HETATM    5  C   UNL     1      39.585   7.847 -17.587  1.00  0.00     0.110 C 
BRANCH   5   6
HETATM    6  C   UNL     1      39.443   7.323 -16.149  1.00  0.00     0.010 C 
BRANCH   6   7
HETATM    7  C   UNL     1      38.145   7.826 -15.507  1.00  0.00     0.001 C 
BRANCH   7   8
HETATM    8  C   UNL     1      38.378   8.242 -14.049  1.00  0.00     0.000 C 
BRANCH   8   9
HETATM    9  C   UNL     1      39.551   7.467 -13.436  1.00  0.00     0.000 C 
BRANCH   9  10
HETATM   10  C   UNL     1      39.998   8.100 -12.114  1.00  0.00     0.000 C 
BRANCH  10  11
HETATM   11  C   UNL     1      39.421   7.336 -10.915  1.00  0.00     0.000 C 
BRANCH  11  12
HETATM   12  C   UNL     1      40.192   7.663  -9.631  1.00  0.00     0.000 C 
BRANCH  12  13
HETATM   13  C   UNL     1      39.358   7.330  -8.389  1.00  0.00     0.000 C 
BRANCH  13  14
HETATM   14  C   UNL     1      38.937   8.606  -7.650  1.00  0.00     0.000 C 
BRANCH  14  15
HETATM   15  C   UNL     1      38.205   8.271  -6.345  1.00  0.00     0.000 C 
BRANCH  15  16
HETATM   16  C   UNL     1      38.835   7.054  -5.658  1.00  0.00     0.000 C 
BRANCH  16  17
HETATM   17  C   UNL     1      39.473   7.447  -4.320  1.00  0.00    -0.000 C 
BRANCH  17  18
HETATM   18  C   UNL     1      39.052   8.861  -3.904  1.00  0.00    -0.005 C 
HETATM   19  C   UNL     1      38.234   8.835  -2.616  1.00  0.00     0.005 C 
ENDBRANCH  17  18
ENDBRANCH  16  17
ENDBRANCH  15  16
ENDBRANCH  14  15
ENDBRANCH  13  14
ENDBRANCH  12  13
ENDBRANCH  11  12
ENDBRANCH  10  11
ENDBRANCH   9  10
ENDBRANCH   8   9
ENDBRANCH   7   8
ENDBRANCH   6   7
ENDBRANCH   5   6
ENDBRANCH   3   5
ENDBRANCH   1   3
TORSDOF 15
ENDMDL
MODEL 13
REMARK VINA RESULT:      -3.5      3.153      6.938
REMARK  15 active torsions:
REMARK  status: ('A' for Active; 'I' for Inactive)
REMARK    1  A    between atoms: O_1  and  C_18 
REMARK    2  A    between atoms: C_3  and  C_4 
REMARK    3  A    between atoms: C_3  and  C_5 
REMARK    4  A    between atoms: C_4  and  C_6 
REMARK    5  A    between atoms: C_5  and  C_7 
REMARK    6  A    between atoms: C_6  and  C_8 
REMARK    7  A    between atoms: C_7  and  C_9 
REMARK    8  A    between atoms: C_8  and  C_10 
REMARK    9  A    between atoms: C_9  and  C_11 
REMARK   10  A    between atoms: C_10  and  C_12 
REMARK   11  A    between atoms: C_11  and  C_13 
REMARK   12  A    between atoms: C_12  and  C_14 
REMARK   13  A    between atoms: C_13  and  C_15 
REMARK   14  A    between atoms: C_14  and  C_16 
REMARK   15  A    between atoms: C_16  and  C_18 
ROOT
HETATM    1  O   UNL     1      39.215   6.796 -18.553  1.00  0.00    -0.776 OA
HETATM    2  H   UNL     1      39.628   7.202 -19.327  1.00  0.00     0.167 HD
ENDROOT
BRANCH   1   3
HETATM    3  C   UNL     1      39.395   7.300 -17.313  1.00  0.00     0.139 C 
HETATM    4  O   UNL     1      39.607   6.544 -16.376  1.00  0.00    -0.650 OA
BRANCH   3   5
HETATM    5  C   UNL     1      39.329   8.792 -17.114  1.00  0.00     0.110 C 
BRANCH   5   6
HETATM    6  C   UNL     1      37.892   9.322 -16.998  1.00  0.00     0.010 C 
BRANCH   6   7
HETATM    7  C   UNL     1      37.255   8.896 -15.670  1.00  0.00     0.001 C 
BRANCH   7   8
HETATM    8  C   UNL     1      37.160  10.080 -14.700  1.00  0.00     0.000 C 
BRANCH   8   9
HETATM    9  C   UNL     1      38.157   9.927 -13.545  1.00  0.00     0.000 C 
BRANCH   9  10
HETATM   10  C   UNL     1      38.608   8.469 -13.398  1.00  0.00     0.000 C 
BRANCH  10  11
HETATM   11  C   UNL     1      40.126   8.380 -13.202  1.00  0.00     0.000 C 
BRANCH  11  12
HETATM   12  C   UNL     1      40.597   9.336 -12.099  1.00  0.00     0.000 C 
BRANCH  12  13
HETATM   13  C   UNL     1      40.446   8.696 -10.715  1.00  0.00     0.000 C 
BRANCH  13  14
HETATM   14  C   UNL     1      39.526   9.533  -9.819  1.00  0.00     0.000 C 
BRANCH  14  15
HETATM   15  C   UNL     1      38.379   8.683  -9.259  1.00  0.00     0.000 C 
BRANCH  15  16
HETATM   16  C   UNL     1      38.140   8.988  -7.776  1.00  0.00     0.000 C 
BRANCH  16  17
HETATM   17  C   UNL     1      38.950   8.040  -6.882  1.00  0.00    -0.000 C 
BRANCH  17  18
HETATM   18  C   UNL     1      39.324   8.718  -5.560  1.00  0.00    -0.005 C 
HETATM   19  C   UNL     1      40.457   7.972  -4.860  1.00  0.00     0.005 C 
ENDBRANCH  17  18
ENDBRANCH  16  17
ENDBRANCH  15  16
ENDBRANCH  14  15
ENDBRANCH  13  14
ENDBRANCH  12  13
ENDBRANCH  11  12
ENDBRANCH  10  11
ENDBRANCH   9  10
ENDBRANCH   8   9
ENDBRANCH   7   8
ENDBRANCH   6   7
ENDBRANCH   5   6
ENDBRANCH   3   5
ENDBRANCH   1   3
TORSDOF 15
ENDMDL
MODEL 14
REMARK VINA RESULT:      -3.5     25.553     27.455
REMARK  15 active torsions:
REMARK  status: ('A' for Active; 'I' for Inactive)
REMARK    1  A    between atoms: O_1  and  C_18 
REMARK    2  A    between atoms: C_3  and  C_4 
REMARK    3  A    between atoms: C_3  and  C_5 
REMARK    4  A    between atoms: C_4  and  C_6 
REMARK    5  A    between atoms: C_5  and  C_7 
REMARK    6  A    between atoms: C_6  and  C_8 
REMARK    7  A    between atoms: C_7  and  C_9 
REMARK    8  A    between atoms: C_8  and  C_10 
REMARK    9  A    between atoms: C_9  and  C_11 
REMARK   10  A    between atoms: C_10  and  C_12 
REMARK   11  A    between atoms: C_11  and  C_13 
REMARK   12  A    between atoms: C_12  and  C_14 
REMARK   13  A    between atoms: C_13  and  C_15 
REMARK   14  A    between atoms: C_14  and  C_16 
REMARK   15  A    between atoms: C_16  and  C_18 
ROOT
HETATM    1  O   UNL     1      31.646 -21.173 -10.157  1.00  0.00    -0.776 OA
HETATM    2  H   UNL     1      32.340 -21.792 -10.425  1.00  0.00     0.167 HD
ENDROOT
BRANCH   1   3
HETATM    3  C   UNL     1      31.027 -20.377 -11.054  1.00  0.00     0.139 C 
HETATM    4  O   UNL     1      30.766 -20.806 -12.169  1.00  0.00    -0.650 OA
BRANCH   3   5
HETATM    5  C   UNL     1      30.670 -18.968 -10.656  1.00  0.00     0.110 C 
BRANCH   5   6
HETATM    6  C   UNL     1      31.165 -18.595  -9.250  1.00  0.00     0.010 C 
BRANCH   6   7
HETATM    7  C   UNL     1      30.052 -18.768  -8.212  1.00  0.00     0.001 C 
BRANCH   7   8
HETATM    8  C   UNL     1      30.449 -18.142  -6.869  1.00  0.00     0.000 C 
BRANCH   8   9
HETATM    9  C   UNL     1      29.992 -16.681  -6.786  1.00  0.00     0.000 C 
BRANCH   9  10
HETATM   10  C   UNL     1      31.159 -15.723  -7.051  1.00  0.00     0.000 C 
BRANCH  10  11
HETATM   11  C   UNL     1      30.738 -14.589  -7.993  1.00  0.00     0.000 C 
BRANCH  11  12
HETATM   12  C   UNL     1      31.172 -14.880  -9.434  1.00  0.00     0.000 C 
BRANCH  12  13
HETATM   13  C   UNL     1      29.967 -15.239 -10.311  1.00  0.00     0.000 C 
BRANCH  13  14
HETATM   14  C   UNL     1      28.653 -14.828  -9.635  1.00  0.00     0.000 C 
BRANCH  14  15
HETATM   15  C   UNL     1      27.937 -13.738 -10.441  1.00  0.00     0.000 C 
BRANCH  15  16
HETATM   16  C   UNL     1      28.622 -13.515 -11.795  1.00  0.00     0.000 C 
BRANCH  16  17
HETATM   17  C   UNL     1      27.722 -13.974 -12.948  1.00  0.00    -0.000 C 
BRANCH  17  18
HETATM   18  C   UNL     1      28.280 -13.510 -14.299  1.00  0.00    -0.005 C 
HETATM   19  C   UNL     1      29.298 -12.388 -14.118  1.00  0.00     0.005 C 
ENDBRANCH  17  18
ENDBRANCH  16  17
ENDBRANCH  15  16
ENDBRANCH  14  15
ENDBRANCH  13  14
ENDBRANCH  12  13
ENDBRANCH  11  12
ENDBRANCH  10  11
ENDBRANCH   9  10
ENDBRANCH   8   9
ENDBRANCH   7   8
ENDBRANCH   6   7
ENDBRANCH   5   6
ENDBRANCH   3   5
ENDBRANCH   1   3
TORSDOF 15
ENDMDL
MODEL 15
REMARK VINA RESULT:      -3.5     24.934     26.285
REMARK  15 active torsions:
REMARK  status: ('A' for Active; 'I' for Inactive)
REMARK    1  A    between atoms: O_1  and  C_18 
REMARK    2  A    between atoms: C_3  and  C_4 
REMARK    3  A    between atoms: C_3  and  C_5 
REMARK    4  A    between atoms: C_4  and  C_6 
REMARK    5  A    between atoms: C_5  and  C_7 
REMARK    6  A    between atoms: C_6  and  C_8 
REMARK    7  A    between atoms: C_7  and  C_9 
REMARK    8  A    between atoms: C_8  and  C_10 
REMARK    9  A    between atoms: C_9  and  C_11 
REMARK   10  A    between atoms: C_10  and  C_12 
REMARK   11  A    between atoms: C_11  and  C_13 
REMARK   12  A    between atoms: C_12  and  C_14 
REMARK   13  A    between atoms: C_13  and  C_15 
REMARK   14  A    between atoms: C_14  and  C_16 
REMARK   15  A    between atoms: C_16  and  C_18 
ROOT
HETATM    1  O   UNL     1      31.732 -21.075 -15.030  1.00  0.00    -0.776 OA
HETATM    2  H   UNL     1      31.766 -20.830 -14.094  1.00  0.00     0.167 HD
ENDROOT
BRANCH   1   3
HETATM    3  C   UNL     1      30.999 -20.368 -15.916  1.00  0.00     0.139 C 
HETATM    4  O   UNL     1      30.746 -20.845 -17.013  1.00  0.00    -0.650 OA
BRANCH   3   5
HETATM    5  C   UNL     1      30.505 -18.998 -15.527  1.00  0.00     0.110 C 
BRANCH   5   6
HETATM    6  C   UNL     1      30.978 -18.560 -14.133  1.00  0.00     0.010 C 
BRANCH   6   7
HETATM    7  C   UNL     1      30.126 -17.401 -13.602  1.00  0.00     0.001 C 
BRANCH   7   8
HETATM    8  C   UNL     1      29.923 -16.329 -14.680  1.00  0.00     0.000 C 
BRANCH   8   9
HETATM    9  C   UNL     1      31.169 -15.447 -14.821  1.00  0.00     0.000 C 
BRANCH   9  10
HETATM   10  C   UNL     1      31.653 -15.406 -16.275  1.00  0.00     0.000 C 
BRANCH  10  11
HETATM   11  C   UNL     1      31.416 -14.024 -16.895  1.00  0.00     0.000 C 
BRANCH  11  12
HETATM   12  C   UNL     1      30.042 -13.950 -17.571  1.00  0.00     0.000 C 
BRANCH  12  13
HETATM   13  C   UNL     1      29.323 -12.643 -17.218  1.00  0.00     0.000 C 
BRANCH  13  14
HETATM   14  C   UNL     1      28.675 -12.729 -15.831  1.00  0.00     0.000 C 
BRANCH  14  15
HETATM   15  C   UNL     1      29.393 -11.816 -14.830  1.00  0.00     0.000 C 
BRANCH  15  16
HETATM   16  C   UNL     1      29.429 -12.451 -13.435  1.00  0.00     0.000 C 
BRANCH  16  17
HETATM   17  C   UNL     1      30.850 -12.431 -12.858  1.00  0.00    -0.000 C 
BRANCH  17  18
HETATM   18  C   UNL     1      31.849 -11.872 -13.878  1.00  0.00    -0.005 C 
HETATM   19  C   UNL     1      33.190 -11.558 -13.220  1.00  0.00     0.005 C 
ENDBRANCH  17  18
ENDBRANCH  16  17
ENDBRANCH  15  16
ENDBRANCH  14  15
ENDBRANCH  13  14
ENDBRANCH  12  13
ENDBRANCH  11  12
ENDBRANCH  10  11
ENDBRANCH   9  10
ENDBRANCH   8   9
ENDBRANCH   7   8
ENDBRANCH   6   7
ENDBRANCH   5   6
ENDBRANCH   3   5
ENDBRANCH   1   3
TORSDOF 15
ENDMDL
MODEL 16
REMARK VINA RESULT:      -3.5      2.040      3.137
REMARK  15 active torsions:
REMARK  status: ('A' for Active; 'I' for Inactive)
REMARK    1  A    between atoms: O_1  and  C_18 
REMARK    2  A    between atoms: C_3  and  C_4 
REMARK    3  A    between atoms: C_3  and  C_5 
REMARK    4  A    between atoms: C_4  and  C_6 
REMARK    5  A    between atoms: C_5  and  C_7 
REMARK    6  A    between atoms: C_6  and  C_8 
REMARK    7  A    between atoms: C_7  and  C_9 
REMARK    8  A    between atoms: C_8  and  C_10 
REMARK    9  A    between atoms: C_9  and  C_11 
REMARK   10  A    between atoms: C_10  and  C_12 
REMARK   11  A    between atoms: C_11  and  C_13 
REMARK   12  A    between atoms: C_12  and  C_14 
REMARK   13  A    between atoms: C_13  and  C_15 
REMARK   14  A    between atoms: C_14  and  C_16 
REMARK   15  A    between atoms: C_16  and  C_18 
ROOT
HETATM    1  O   UNL     1      39.535   6.449  -6.284  1.00  0.00    -0.776 OA
HETATM    2  H   UNL     1      38.700   6.224  -5.851  1.00  0.00     0.167 HD
ENDROOT
BRANCH   1   3
HETATM    3  C   UNL     1      39.606   7.419  -7.220  1.00  0.00     0.139 C 
HETATM    4  O   UNL     1      40.076   8.509  -6.930  1.00  0.00    -0.650 OA
BRANCH   3   5
HETATM    5  C   UNL     1      39.099   7.131  -8.610  1.00  0.00     0.110 C 
BRANCH   5   6
HETATM    6  C   UNL     1      39.910   7.840  -9.706  1.00  0.00     0.010 C 
BRANCH   6   7
HETATM    7  C   UNL     1      39.006   8.264 -10.869  1.00  0.00     0.001 C 
BRANCH   7   8
HETATM    8  C   UNL     1      39.523   7.704 -12.200  1.00  0.00     0.000 C 
BRANCH   8   9
HETATM    9  C   UNL     1      40.419   8.722 -12.916  1.00  0.00     0.000 C 
BRANCH   9  10
HETATM   10  C   UNL     1      39.807   9.146 -14.256  1.00  0.00     0.000 C 
BRANCH  10  11
HETATM   11  C   UNL     1      38.350   8.680 -14.368  1.00  0.00     0.000 C 
BRANCH  11  12
HETATM   12  C   UNL     1      38.075   8.056 -15.741  1.00  0.00     0.000 C 
BRANCH  12  13
HETATM   13  C   UNL     1      39.251   7.184 -16.195  1.00  0.00     0.000 C 
BRANCH  13  14
HETATM   14  C   UNL     1      39.434   7.257 -17.716  1.00  0.00     0.000 C 
BRANCH  14  15
HETATM   15  C   UNL     1      39.648   8.705 -18.176  1.00  0.00     0.000 C 
BRANCH  15  16
HETATM   16  C   UNL     1      41.016   9.229 -17.724  1.00  0.00     0.000 C 
BRANCH  16  17
HETATM   17  C   UNL     1      41.014  10.759 -17.628  1.00  0.00    -0.000 C 
BRANCH  17  18
HETATM   18  C   UNL     1      40.138  11.378 -18.723  1.00  0.00    -0.005 C 
HETATM   19  C   UNL     1      40.990  11.958 -19.848  1.00  0.00     0.005 C 
ENDBRANCH  17  18
ENDBRANCH  16  17
ENDBRANCH  15  16
ENDBRANCH  14  15
ENDBRANCH  13  14
ENDBRANCH  12  13
ENDBRANCH  11  12
ENDBRANCH  10  11
ENDBRANCH   9  10
ENDBRANCH   8   9
ENDBRANCH   7   8
ENDBRANCH   6   7
ENDBRANCH   5   6
ENDBRANCH   3   5
ENDBRANCH   1   3
TORSDOF 15
ENDMDL
MODEL 17
REMARK VINA RESULT:      -3.5      5.034      8.252
REMARK  15 active torsions:
REMARK  status: ('A' for Active; 'I' for Inactive)
REMARK    1  A    between atoms: O_1  and  C_18 
REMARK    2  A    between atoms: C_3  and  C_4 
REMARK    3  A    between atoms: C_3  and  C_5 
REMARK    4  A    between atoms: C_4  and  C_6 
REMARK    5  A    between atoms: C_5  and  C_7 
REMARK    6  A    between atoms: C_6  and  C_8 
REMARK    7  A    between atoms: C_7  and  C_9 
REMARK    8  A    between atoms: C_8  and  C_10 
REMARK    9  A    between atoms: C_9  and  C_11 
REMARK   10  A    between atoms: C_10  and  C_12 
REMARK   11  A    between atoms: C_11  and  C_13 
REMARK   12  A    between atoms: C_12  and  C_14 
REMARK   13  A    between atoms: C_13  and  C_15 
REMARK   14  A    between atoms: C_14  and  C_16 
REMARK   15  A    between atoms: C_16  and  C_18 
ROOT
HETATM    1  O   UNL     1      44.003  12.274  -3.749  1.00  0.00    -0.776 OA
HETATM    2  H   UNL     1      44.664  11.886  -3.160  1.00  0.00     0.167 HD
ENDROOT
BRANCH   1   3
HETATM    3  C   UNL     1      42.910  11.581  -4.136  1.00  0.00     0.139 C 
HETATM    4  O   UNL     1      42.606  11.538  -5.320  1.00  0.00    -0.650 OA
BRANCH   3   5
HETATM    5  C   UNL     1      42.087  10.873  -3.091  1.00  0.00     0.110 C 
BRANCH   5   6
HETATM    6  C   UNL     1      41.305   9.674  -3.650  1.00  0.00     0.010 C 
BRANCH   6   7
HETATM    7  C   UNL     1      39.806   9.814  -3.364  1.00  0.00     0.001 C 
BRANCH   7   8
HETATM    8  C   UNL     1      39.210   8.482  -2.891  1.00  0.00     0.000 C 
BRANCH   8   9
HETATM    9  C   UNL     1      39.538   7.352  -3.874  1.00  0.00     0.000 C 
BRANCH   9  10
HETATM   10  C   UNL     1      38.432   7.198  -4.924  1.00  0.00     0.000 C 
BRANCH  10  11
HETATM   11  C   UNL     1      38.950   7.550  -6.324  1.00  0.00     0.000 C 
BRANCH  11  12
HETATM   12  C   UNL     1      38.283   8.826  -6.853  1.00  0.00     0.000 C 
BRANCH  12  13
HETATM   13  C   UNL     1      39.316   9.937  -7.070  1.00  0.00     0.000 C 
BRANCH  13  14
HETATM   14  C   UNL     1      40.731   9.358  -7.187  1.00  0.00     0.000 C 
BRANCH  14  15
HETATM   15  C   UNL     1      41.396   9.788  -8.500  1.00  0.00     0.000 C 
BRANCH  15  16
HETATM   16  C   UNL     1      40.671   9.182  -9.707  1.00  0.00     0.000 C 
BRANCH  16  17
HETATM   17  C   UNL     1      40.516   7.664  -9.551  1.00  0.00    -0.000 C 
BRANCH  17  18
HETATM   18  C   UNL     1      39.212   7.176 -10.193  1.00  0.00    -0.005 C 
HETATM   19  C   UNL     1      39.330   7.136 -11.714  1.00  0.00     0.005 C 
ENDBRANCH  17  18
ENDBRANCH  16  17
ENDBRANCH  15  16
ENDBRANCH  14  15
ENDBRANCH  13  14
ENDBRANCH  12  13
ENDBRANCH  11  12
ENDBRANCH  10  11
ENDBRANCH   9  10
ENDBRANCH   8   9
ENDBRANCH   7   8
ENDBRANCH   6   7
ENDBRANCH   5   6
ENDBRANCH   3   5
ENDBRANCH   1   3
TORSDOF 15
ENDMDL
MODEL 18
REMARK VINA RESULT:      -3.5      3.788      5.504
REMARK  15 active torsions:
REMARK  status: ('A' for Active; 'I' for Inactive)
REMARK    1  A    between atoms: O_1  and  C_18 
REMARK    2  A    between atoms: C_3  and  C_4 
REMARK    3  A    between atoms: C_3  and  C_5 
REMARK    4  A    between atoms: C_4  and  C_6 
REMARK    5  A    between atoms: C_5  and  C_7 
REMARK    6  A    between atoms: C_6  and  C_8 
REMARK    7  A    between atoms: C_7  and  C_9 
REMARK    8  A    between atoms: C_8  and  C_10 
REMARK    9  A    between atoms: C_9  and  C_11 
REMARK   10  A    between atoms: C_10  and  C_12 
REMARK   11  A    between atoms: C_11  and  C_13 
REMARK   12  A    between atoms: C_12  and  C_14 
REMARK   13  A    between atoms: C_13  and  C_15 
REMARK   14  A    between atoms: C_14  and  C_16 
REMARK   15  A    between atoms: C_16  and  C_18 
ROOT
HETATM    1  O   UNL     1      41.577  13.230 -14.977  1.00  0.00    -0.776 OA
HETATM    2  H   UNL     1      41.075  13.901 -15.461  1.00  0.00     0.167 HD
ENDROOT
BRANCH   1   3
HETATM    3  C   UNL     1      41.934  12.064 -15.556  1.00  0.00     0.139 C 
HETATM    4  O   UNL     1      42.990  11.987 -16.167  1.00  0.00    -0.650 OA
BRANCH   3   5
HETATM    5  C   UNL     1      41.015  10.876 -15.432  1.00  0.00     0.110 C 
BRANCH   5   6
HETATM    6  C   UNL     1      41.570   9.777 -14.512  1.00  0.00     0.010 C 
BRANCH   6   7
HETATM    7  C   UNL     1      41.599  10.245 -13.053  1.00  0.00     0.001 C 
BRANCH   7   8
HETATM    8  C   UNL     1      40.276   9.926 -12.346  1.00  0.00     0.000 C 
BRANCH   8   9
HETATM    9  C   UNL     1      40.145   8.422 -12.076  1.00  0.00     0.000 C 
BRANCH   9  10
HETATM   10  C   UNL     1      38.949   7.830 -12.830  1.00  0.00     0.000 C 
BRANCH  10  11
HETATM   11  C   UNL     1      38.106   8.935 -13.480  1.00  0.00     0.000 C 
BRANCH  11  12
HETATM   12  C   UNL     1      37.954   8.698 -14.987  1.00  0.00     0.000 C 
BRANCH  12  13
HETATM   13  C   UNL     1      38.366   7.271 -15.364  1.00  0.00     0.000 C 
BRANCH  13  14
HETATM   14  C   UNL     1      39.598   7.278 -16.278  1.00  0.00     0.000 C 
BRANCH  14  15
HETATM   15  C   UNL     1      39.391   8.213 -17.475  1.00  0.00     0.000 C 
BRANCH  15  16
HETATM   16  C   UNL     1      39.987   7.611 -18.753  1.00  0.00     0.000 C 
BRANCH  16  17
HETATM   17  C   UNL     1      38.898   6.958 -19.613  1.00  0.00    -0.000 C 
BRANCH  17  18
HETATM   18  C   UNL     1      39.251   7.039 -21.102  1.00  0.00    -0.005 C 
HETATM   19  C   UNL     1      39.143   8.472 -21.616  1.00  0.00     0.005 C 
ENDBRANCH  17  18
ENDBRANCH  16  17
ENDBRANCH  15  16
ENDBRANCH  14  15
ENDBRANCH  13  14
ENDBRANCH  12  13
ENDBRANCH  11  12
ENDBRANCH  10  11
ENDBRANCH   9  10
ENDBRANCH   8   9
ENDBRANCH   7   8
ENDBRANCH   6   7
ENDBRANCH   5   6
ENDBRANCH   3   5
ENDBRANCH   1   3
TORSDOF 15
ENDMDL
MODEL 19
REMARK VINA RESULT:      -3.5      4.731      7.536
REMARK  15 active torsions:
REMARK  status: ('A' for Active; 'I' for Inactive)
REMARK    1  A    between atoms: O_1  and  C_18 
REMARK    2  A    between atoms: C_3  and  C_4 
REMARK    3  A    between atoms: C_3  and  C_5 
REMARK    4  A    between atoms: C_4  and  C_6 
REMARK    5  A    between atoms: C_5  and  C_7 
REMARK    6  A    between atoms: C_6  and  C_8 
REMARK    7  A    between atoms: C_7  and  C_9 
REMARK    8  A    between atoms: C_8  and  C_10 
REMARK    9  A    between atoms: C_9  and  C_11 
REMARK   10  A    between atoms: C_10  and  C_12 
REMARK   11  A    between atoms: C_11  and  C_13 
REMARK   12  A    between atoms: C_12  and  C_14 
REMARK   13  A    between atoms: C_13  and  C_15 
REMARK   14  A    between atoms: C_14  and  C_16 
REMARK   15  A    between atoms: C_16  and  C_18 
ROOT
HETATM    1  O   UNL     1      39.010   6.584  -9.484  1.00  0.00    -0.776 OA
HETATM    2  H   UNL     1      38.299   6.788  -8.861  1.00  0.00     0.167 HD
ENDROOT
BRANCH   1   3
HETATM    3  C   UNL     1      39.783   7.556 -10.014  1.00  0.00     0.139 C 
HETATM    4  O   UNL     1      39.554   7.966 -11.143  1.00  0.00    -0.650 OA
BRANCH   3   5
HETATM    5  C   UNL     1      40.915   8.117  -9.194  1.00  0.00     0.110 C 
BRANCH   5   6
HETATM    6  C   UNL     1      41.028   9.646  -9.287  1.00  0.00     0.010 C 
BRANCH   6   7
HETATM    7  C   UNL     1      41.779  10.217  -8.079  1.00  0.00     0.001 C 
BRANCH   7   8
HETATM    8  C   UNL     1      41.038  11.425  -7.492  1.00  0.00     0.000 C 
BRANCH   8   9
HETATM    9  C   UNL     1      40.815  11.254  -5.984  1.00  0.00     0.000 C 
BRANCH   9  10
HETATM   10  C   UNL     1      41.374   9.913  -5.494  1.00  0.00     0.000 C 
BRANCH  10  11
HETATM   11  C   UNL     1      40.929   9.624  -4.056  1.00  0.00     0.000 C 
BRANCH  11  12
HETATM   12  C   UNL     1      39.971   8.428  -4.005  1.00  0.00     0.000 C 
BRANCH  12  13
HETATM   13  C   UNL     1      40.074   7.586  -5.282  1.00  0.00     0.000 C 
BRANCH  13  14
HETATM   14  C   UNL     1      38.794   7.699  -6.119  1.00  0.00     0.000 C 
BRANCH  14  15
HETATM   15  C   UNL     1      37.707   8.473  -5.363  1.00  0.00     0.000 C 
BRANCH  15  16
HETATM   16  C   UNL     1      37.142   9.609  -6.223  1.00  0.00     0.000 C 
BRANCH  16  17
HETATM   17  C   UNL     1      37.835   9.662  -7.590  1.00  0.00    -0.000 C 
BRANCH  17  18
HETATM   18  C   UNL     1      37.019  10.489  -8.589  1.00  0.00    -0.005 C 
HETATM   19  C   UNL     1      37.852  11.630  -9.169  1.00  0.00     0.005 C 
ENDBRANCH  17  18
ENDBRANCH  16  17
ENDBRANCH  15  16
ENDBRANCH  14  15
ENDBRANCH  13  14
ENDBRANCH  12  13
ENDBRANCH  11  12
ENDBRANCH  10  11
ENDBRANCH   9  10
ENDBRANCH   8   9
ENDBRANCH   7   8
ENDBRANCH   6   7
ENDBRANCH   5   6
ENDBRANCH   3   5
ENDBRANCH   1   3
TORSDOF 15
ENDMDL
MODEL 20
REMARK VINA RESULT:      -3.5      1.842      2.625
REMARK  15 active torsions:
REMARK  status: ('A' for Active; 'I' for Inactive)
REMARK    1  A    between atoms: O_1  and  C_18 
REMARK    2  A    between atoms: C_3  and  C_4 
REMARK    3  A    between atoms: C_3  and  C_5 
REMARK    4  A    between atoms: C_4  and  C_6 
REMARK    5  A    between atoms: C_5  and  C_7 
REMARK    6  A    between atoms: C_6  and  C_8 
REMARK    7  A    between atoms: C_7  and  C_9 
REMARK    8  A    between atoms: C_8  and  C_10 
REMARK    9  A    between atoms: C_9  and  C_11 
REMARK   10  A    between atoms: C_10  and  C_12 
REMARK   11  A    between atoms: C_11  and  C_13 
REMARK   12  A    between atoms: C_12  and  C_14 
REMARK   13  A    between atoms: C_13  and  C_15 
REMARK   14  A    between atoms: C_14  and  C_16 
REMARK   15  A    between atoms: C_16  and  C_18 
ROOT
HETATM    1  O   UNL     1      38.444   8.684  -7.888  1.00  0.00    -0.776 OA
HETATM    2  H   UNL     1      38.739   9.605  -7.913  1.00  0.00     0.167 HD
ENDROOT
BRANCH   1   3
HETATM    3  C   UNL     1      39.300   7.664  -8.105  1.00  0.00     0.139 C 
HETATM    4  O   UNL     1      39.542   6.872  -7.206  1.00  0.00    -0.650 OA
BRANCH   3   5
HETATM    5  C   UNL     1      39.941   7.525  -9.462  1.00  0.00     0.110 C 
BRANCH   5   6
HETATM    6  C   UNL     1      38.964   7.038 -10.543  1.00  0.00     0.010 C 
BRANCH   6   7
HETATM    7  C   UNL     1      38.784   8.096 -11.638  1.00  0.00     0.001 C 
BRANCH   7   8
HETATM    8  C   UNL     1      40.050   8.223 -12.494  1.00  0.00     0.000 C 
BRANCH   8   9
HETATM    9  C   UNL     1      40.178   9.633 -13.082  1.00  0.00     0.000 C 
BRANCH   9  10
HETATM   10  C   UNL     1      41.506  10.281 -12.674  1.00  0.00     0.000 C 
BRANCH  10  11
HETATM   11  C   UNL     1      42.274  10.783 -13.902  1.00  0.00     0.000 C 
BRANCH  11  12
HETATM   12  C   UNL     1      41.319  11.101 -15.058  1.00  0.00     0.000 C 
BRANCH  12  13
HETATM   13  C   UNL     1      42.081  11.244 -16.380  1.00  0.00     0.000 C 
BRANCH  13  14
HETATM   14  C   UNL     1      41.346  10.528 -17.520  1.00  0.00     0.000 C 
BRANCH  14  15
HETATM   15  C   UNL     1      39.886  10.248 -17.143  1.00  0.00     0.000 C 
BRANCH  15  16
HETATM   16  C   UNL     1      39.514   8.789 -17.432  1.00  0.00     0.000 C 
BRANCH  16  17
HETATM   17  C   UNL     1      39.958   7.870 -16.287  1.00  0.00    -0.000 C 
BRANCH  17  18
HETATM   18  C   UNL     1      38.761   7.131 -15.679  1.00  0.00    -0.005 C 
HETATM   19  C   UNL     1      37.631   8.099 -15.339  1.00  0.00     0.005 C 
ENDBRANCH  17  18
ENDBRANCH  16  17
ENDBRANCH  15  16
ENDBRANCH  14  15
ENDBRANCH  13  14
ENDBRANCH  12  13
ENDBRANCH  11  12
ENDBRANCH  10  11
ENDBRANCH   9  10
ENDBRANCH   8   9
ENDBRANCH   7   8
ENDBRANCH   6   7
ENDBRANCH   5   6
ENDBRANCH   3   5
ENDBRANCH   1   3
TORSDOF 15
ENDMDL
