MODEL 1
REMARK VINA RESULT:      -4.4      0.000      0.000
REMARK  16 active torsions:
REMARK  status: ('A' for Active; 'I' for Inactive)
REMARK    1  A    between atoms: O_1  and  C_20 
REMARK    2  A    between atoms: C_3  and  C_4 
REMARK    3  A    between atoms: C_3  and  C_5 
REMARK    4  A    between atoms: C_4  and  C_8 
REMARK    5  A    between atoms: C_5  and  C_11 
REMARK    6  A    between atoms: C_6  and  C_7 
REMARK    7  A    between atoms: C_6  and  C_9 
REMARK    8  A    between atoms: C_7  and  C_10 
REMARK    9  A    between atoms: C_8  and  C_12 
REMARK   10  A    between atoms: C_9  and  C_13 
REMARK   11  A    between atoms: C_10  and  C_14 
REMARK   12  A    between atoms: C_11  and  C_15 
REMARK   13  A    between atoms: C_12  and  C_16 
REMARK   14  A    between atoms: C_13  and  C_17 
REMARK   15  A    between atoms: C_14  and  C_18 
REMARK   16  A    between atoms: C_18  and  C_20 
ROOT
HETATM    1  O   UNL     1      38.812   6.122 -19.888  1.00  0.00    -0.776 OA
HETATM    2  H   UNL     1      38.791   5.196 -20.169  1.00  0.00     0.167 HD
ENDROOT
BRANCH   1   3
HETATM    3  C   UNL     1      39.356   7.082 -20.665  1.00  0.00     0.139 C 
HETATM    4  O   UNL     1      39.547   6.866 -21.854  1.00  0.00    -0.650 OA
BRANCH   3   5
HETATM    5  C   UNL     1      39.717   8.407 -20.045  1.00  0.00     0.110 C 
BRANCH   5   6
HETATM    6  C   UNL     1      41.049   8.373 -19.283  1.00  0.00     0.010 C 
BRANCH   6   7
HETATM    7  C   UNL     1      41.446   9.776 -18.806  1.00  0.00     0.001 C 
BRANCH   7   8
HETATM    8  C   UNL     1      40.354  10.796 -19.143  1.00  0.00     0.000 C 
BRANCH   8   9
HETATM    9  C   UNL     1      40.051  11.698 -17.940  1.00  0.00     0.000 C 
BRANCH   9  10
HETATM   10  C   UNL     1      40.297  10.950 -16.625  1.00  0.00     0.004 C 
BRANCH  10  11
HETATM   11  C   UNL     1      39.027  10.886 -15.773  1.00  0.00     0.027 C 
BRANCH  11  12
HETATM   12  C   UNL     1      37.970  10.096 -16.506  1.00  0.00    -0.031 C 
HETATM   13  C   UNL     1      37.983   8.771 -16.759  1.00  0.00    -0.031 C 
BRANCH  13  14
HETATM   14  C   UNL     1      39.061   7.780 -16.374  1.00  0.00     0.027 C 
BRANCH  14  15
HETATM   15  C   UNL     1      38.679   7.010 -15.097  1.00  0.00     0.004 C 
BRANCH  15  16
HETATM   16  C   UNL     1      39.453   7.445 -13.836  1.00  0.00     0.000 C 
BRANCH  16  17
HETATM   17  C   UNL     1      40.871   7.955 -14.141  1.00  0.00     0.000 C 
BRANCH  17  18
HETATM   18  C   UNL     1      41.137   9.298 -13.447  1.00  0.00     0.000 C 
BRANCH  18  19
HETATM   19  C   UNL     1      40.088   9.574 -12.364  1.00  0.00    -0.000 C 
BRANCH  19  20
HETATM   20  C   UNL     1      40.723   9.576 -10.968  1.00  0.00    -0.005 C 
HETATM   21  C   UNL     1      39.820  10.269  -9.953  1.00  0.00     0.005 C 
ENDBRANCH  19  20
ENDBRANCH  18  19
ENDBRANCH  17  18
ENDBRANCH  16  17
ENDBRANCH  15  16
ENDBRANCH  14  15
ENDBRANCH  13  14
ENDBRANCH  11  12
ENDBRANCH  10  11
ENDBRANCH   9  10
ENDBRANCH   8   9
ENDBRANCH   7   8
ENDBRANCH   6   7
ENDBRANCH   5   6
ENDBRANCH   3   5
ENDBRANCH   1   3
TORSDOF 16
ENDMDL
MODEL 2
REMARK VINA RESULT:      -4.1      1.958      3.976
REMARK  16 active torsions:
REMARK  status: ('A' for Active; 'I' for Inactive)
REMARK    1  A    between atoms: O_1  and  C_20 
REMARK    2  A    between atoms: C_3  and  C_4 
REMARK    3  A    between atoms: C_3  and  C_5 
REMARK    4  A    between atoms: C_4  and  C_8 
REMARK    5  A    between atoms: C_5  and  C_11 
REMARK    6  A    between atoms: C_6  and  C_7 
REMARK    7  A    between atoms: C_6  and  C_9 
REMARK    8  A    between atoms: C_7  and  C_10 
REMARK    9  A    between atoms: C_8  and  C_12 
REMARK   10  A    between atoms: C_9  and  C_13 
REMARK   11  A    between atoms: C_10  and  C_14 
REMARK   12  A    between atoms: C_11  and  C_15 
REMARK   13  A    between atoms: C_12  and  C_16 
REMARK   14  A    between atoms: C_13  and  C_17 
REMARK   15  A    between atoms: C_14  and  C_18 
REMARK   16  A    between atoms: C_18  and  C_20 
ROOT
HETATM    1  O   UNL     1      37.625   8.526 -20.240  1.00  0.00    -0.776 OA
HETATM    2  H   UNL     1      36.777   8.507 -20.706  1.00  0.00     0.167 HD
ENDROOT
BRANCH   1   3
HETATM    3  C   UNL     1      38.710   7.886 -20.724  1.00  0.00     0.139 C 
HETATM    4  O   UNL     1      38.937   7.899 -21.927  1.00  0.00    -0.650 OA
BRANCH   3   5
HETATM    5  C   UNL     1      39.622   7.165 -19.766  1.00  0.00     0.110 C 
BRANCH   5   6
HETATM    6  C   UNL     1      39.990   8.006 -18.536  1.00  0.00     0.010 C 
BRANCH   6   7
HETATM    7  C   UNL     1      39.398   7.400 -17.258  1.00  0.00     0.001 C 
BRANCH   7   8
HETATM    8  C   UNL     1      38.519   8.419 -16.525  1.00  0.00     0.000 C 
BRANCH   8   9
HETATM    9  C   UNL     1      38.101   7.897 -15.146  1.00  0.00     0.000 C 
BRANCH   9  10
HETATM   10  C   UNL     1      39.260   7.154 -14.473  1.00  0.00     0.004 C 
BRANCH  10  11
HETATM   11  C   UNL     1      39.305   7.435 -12.968  1.00  0.00     0.027 C 
BRANCH  11  12
HETATM   12  C   UNL     1      39.126   8.915 -12.729  1.00  0.00    -0.031 C 
HETATM   13  C   UNL     1      38.290   9.493 -11.843  1.00  0.00    -0.031 C 
BRANCH  13  14
HETATM   14  C   UNL     1      37.338   8.793 -10.896  1.00  0.00     0.027 C 
BRANCH  14  15
HETATM   15  C   UNL     1      37.935   8.692  -9.481  1.00  0.00     0.004 C 
BRANCH  15  16
HETATM   16  C   UNL     1      38.751   7.409  -9.225  1.00  0.00     0.000 C 
BRANCH  16  17
HETATM   17  C   UNL     1      39.946   7.628  -8.282  1.00  0.00     0.000 C 
BRANCH  17  18
HETATM   18  C   UNL     1      40.464   9.070  -8.373  1.00  0.00     0.000 C 
BRANCH  18  19
HETATM   19  C   UNL     1      41.513   9.208  -9.483  1.00  0.00    -0.000 C 
BRANCH  19  20
HETATM   20  C   UNL     1      41.477  10.609 -10.106  1.00  0.00    -0.005 C 
HETATM   21  C   UNL     1      40.396  11.470  -9.461  1.00  0.00     0.005 C 
ENDBRANCH  19  20
ENDBRANCH  18  19
ENDBRANCH  17  18
ENDBRANCH  16  17
ENDBRANCH  15  16
ENDBRANCH  14  15
ENDBRANCH  13  14
ENDBRANCH  11  12
ENDBRANCH  10  11
ENDBRANCH   9  10
ENDBRANCH   8   9
ENDBRANCH   7   8
ENDBRANCH   6   7
ENDBRANCH   5   6
ENDBRANCH   3   5
ENDBRANCH   1   3
TORSDOF 16
ENDMDL
MODEL 3
REMARK VINA RESULT:      -4.1      3.875      7.663
REMARK  16 active torsions:
REMARK  status: ('A' for Active; 'I' for Inactive)
REMARK    1  A    between atoms: O_1  and  C_20 
REMARK    2  A    between atoms: C_3  and  C_4 
REMARK    3  A    between atoms: C_3  and  C_5 
REMARK    4  A    between atoms: C_4  and  C_8 
REMARK    5  A    between atoms: C_5  and  C_11 
REMARK    6  A    between atoms: C_6  and  C_7 
REMARK    7  A    between atoms: C_6  and  C_9 
REMARK    8  A    between atoms: C_7  and  C_10 
REMARK    9  A    between atoms: C_8  and  C_12 
REMARK   10  A    between atoms: C_9  and  C_13 
REMARK   11  A    between atoms: C_10  and  C_14 
REMARK   12  A    between atoms: C_11  and  C_15 
REMARK   13  A    between atoms: C_12  and  C_16 
REMARK   14  A    between atoms: C_13  and  C_17 
REMARK   15  A    between atoms: C_14  and  C_18 
REMARK   16  A    between atoms: C_18  and  C_20 
ROOT
HETATM    1  O   UNL     1      38.914  10.853 -10.397  1.00  0.00    -0.776 OA
HETATM    2  H   UNL     1      37.974  10.720 -10.585  1.00  0.00     0.167 HD
ENDROOT
BRANCH   1   3
HETATM    3  C   UNL     1      39.653   9.902  -9.788  1.00  0.00     0.139 C 
HETATM    4  O   UNL     1      40.872  10.007  -9.757  1.00  0.00    -0.650 OA
BRANCH   3   5
HETATM    5  C   UNL     1      38.955   8.727  -9.155  1.00  0.00     0.110 C 
BRANCH   5   6
HETATM    6  C   UNL     1      38.395   7.734 -10.183  1.00  0.00     0.010 C 
BRANCH   6   7
HETATM    7  C   UNL     1      39.525   7.088 -10.995  1.00  0.00     0.001 C 
BRANCH   7   8
HETATM    8  C   UNL     1      39.292   7.274 -12.498  1.00  0.00     0.000 C 
BRANCH   8   9
HETATM    9  C   UNL     1      40.274   8.294 -13.087  1.00  0.00     0.000 C 
BRANCH   9  10
HETATM   10  C   UNL     1      39.550   9.593 -13.457  1.00  0.00     0.004 C 
BRANCH  10  11
HETATM   11  C   UNL     1      38.033   9.394 -13.502  1.00  0.00     0.027 C 
BRANCH  11  12
HETATM   12  C   UNL     1      37.533   9.661 -14.902  1.00  0.00    -0.031 C 
HETATM   13  C   UNL     1      37.603   8.823 -15.956  1.00  0.00    -0.031 C 
BRANCH  13  14
HETATM   14  C   UNL     1      38.202   7.433 -15.980  1.00  0.00     0.027 C 
BRANCH  14  15
HETATM   15  C   UNL     1      39.613   7.446 -16.595  1.00  0.00     0.004 C 
BRANCH  15  16
HETATM   16  C   UNL     1      39.992   8.770 -17.289  1.00  0.00     0.000 C 
BRANCH  16  17
HETATM   17  C   UNL     1      40.890   8.572 -18.521  1.00  0.00     0.000 C 
BRANCH  17  18
HETATM   18  C   UNL     1      40.184   9.040 -19.801  1.00  0.00     0.000 C 
BRANCH  18  19
HETATM   19  C   UNL     1      38.682   8.740 -19.741  1.00  0.00    -0.000 C 
BRANCH  19  20
HETATM   20  C   UNL     1      38.368   7.369 -20.352  1.00  0.00    -0.005 C 
HETATM   21  C   UNL     1      39.309   7.054 -21.510  1.00  0.00     0.005 C 
ENDBRANCH  19  20
ENDBRANCH  18  19
ENDBRANCH  17  18
ENDBRANCH  16  17
ENDBRANCH  15  16
ENDBRANCH  14  15
ENDBRANCH  13  14
ENDBRANCH  11  12
ENDBRANCH  10  11
ENDBRANCH   9  10
ENDBRANCH   8   9
ENDBRANCH   7   8
ENDBRANCH   6   7
ENDBRANCH   5   6
ENDBRANCH   3   5
ENDBRANCH   1   3
TORSDOF 16
ENDMDL
MODEL 4
REMARK VINA RESULT:      -4.1     25.900     28.514
REMARK  16 active torsions:
REMARK  status: ('A' for Active; 'I' for Inactive)
REMARK    1  A    between atoms: O_1  and  C_20 
REMARK    2  A    between atoms: C_3  and  C_4 
REMARK    3  A    between atoms: C_3  and  C_5 
REMARK    4  A    between atoms: C_4  and  C_8 
REMARK    5  A    between atoms: C_5  and  C_11 
REMARK    6  A    between atoms: C_6  and  C_7 
REMARK    7  A    between atoms: C_6  and  C_9 
REMARK    8  A    between atoms: C_7  and  C_10 
REMARK    9  A    between atoms: C_8  and  C_12 
REMARK   10  A    between atoms: C_9  and  C_13 
REMARK   11  A    between atoms: C_10  and  C_14 
REMARK   12  A    between atoms: C_11  and  C_15 
REMARK   13  A    between atoms: C_12  and  C_16 
REMARK   14  A    between atoms: C_13  and  C_17 
REMARK   15  A    between atoms: C_14  and  C_18 
REMARK   16  A    between atoms: C_18  and  C_20 
ROOT
HETATM    1  O   UNL     1      31.544 -21.240  -5.253  1.00  0.00    -0.776 OA
HETATM    2  H   UNL     1      31.870 -22.114  -5.510  1.00  0.00     0.167 HD
ENDROOT
BRANCH   1   3
HETATM    3  C   UNL     1      31.021 -20.387  -6.159  1.00  0.00     0.139 C 
HETATM    4  O   UNL     1      31.080 -20.658  -7.351  1.00  0.00    -0.650 OA
BRANCH   3   5
HETATM    5  C   UNL     1      30.374 -19.115  -5.679  1.00  0.00     0.110 C 
BRANCH   5   6
HETATM    6  C   UNL     1      29.835 -19.217  -4.245  1.00  0.00     0.010 C 
BRANCH   6   7
HETATM    7  C   UNL     1      30.293 -18.022  -3.400  1.00  0.00     0.001 C 
BRANCH   7   8
HETATM    8  C   UNL     1      31.425 -17.261  -4.097  1.00  0.00     0.000 C 
BRANCH   8   9
HETATM    9  C   UNL     1      31.094 -15.769  -4.219  1.00  0.00     0.000 C 
BRANCH   9  10
HETATM   10  C   UNL     1      31.261 -15.292  -5.665  1.00  0.00     0.004 C 
BRANCH  10  11
HETATM   11  C   UNL     1      30.036 -15.641  -6.514  1.00  0.00     0.027 C 
BRANCH  11  12
HETATM   12  C   UNL     1      28.789 -15.144  -5.822  1.00  0.00    -0.031 C 
HETATM   13  C   UNL     1      28.319 -13.880  -5.817  1.00  0.00    -0.031 C 
BRANCH  13  14
HETATM   14  C   UNL     1      28.935 -12.674  -6.494  1.00  0.00     0.027 C 
BRANCH  14  15
HETATM   15  C   UNL     1      29.193 -11.541  -5.485  1.00  0.00     0.004 C 
BRANCH  15  16
HETATM   16  C   UNL     1      29.976 -11.973  -4.229  1.00  0.00     0.000 C 
BRANCH  16  17
HETATM   17  C   UNL     1      31.496 -12.028  -4.452  1.00  0.00     0.000 C 
BRANCH  17  18
HETATM   18  C   UNL     1      31.968 -10.868  -5.337  1.00  0.00     0.000 C 
BRANCH  18  19
HETATM   19  C   UNL     1      33.305 -11.198  -6.010  1.00  0.00    -0.000 C 
BRANCH  19  20
HETATM   20  C   UNL     1      33.166 -11.217  -7.537  1.00  0.00    -0.005 C 
HETATM   21  C   UNL     1      32.281 -12.372  -7.995  1.00  0.00     0.005 C 
ENDBRANCH  19  20
ENDBRANCH  18  19
ENDBRANCH  17  18
ENDBRANCH  16  17
ENDBRANCH  15  16
ENDBRANCH  14  15
ENDBRANCH  13  14
ENDBRANCH  11  12
ENDBRANCH  10  11
ENDBRANCH   9  10
ENDBRANCH   8   9
ENDBRANCH   7   8
ENDBRANCH   6   7
ENDBRANCH   5   6
ENDBRANCH   3   5
ENDBRANCH   1   3
TORSDOF 16
ENDMDL
MODEL 5
REMARK VINA RESULT:      -4.0     26.284     28.787
REMARK  16 active torsions:
REMARK  status: ('A' for Active; 'I' for Inactive)
REMARK    1  A    between atoms: O_1  and  C_20 
REMARK    2  A    between atoms: C_3  and  C_4 
REMARK    3  A    between atoms: C_3  and  C_5 
REMARK    4  A    between atoms: C_4  and  C_8 
REMARK    5  A    between atoms: C_5  and  C_11 
REMARK    6  A    between atoms: C_6  and  C_7 
REMARK    7  A    between atoms: C_6  and  C_9 
REMARK    8  A    between atoms: C_7  and  C_10 
REMARK    9  A    between atoms: C_8  and  C_12 
REMARK   10  A    between atoms: C_9  and  C_13 
REMARK   11  A    between atoms: C_10  and  C_14 
REMARK   12  A    between atoms: C_11  and  C_15 
REMARK   13  A    between atoms: C_12  and  C_16 
REMARK   14  A    between atoms: C_13  and  C_17 
REMARK   15  A    between atoms: C_14  and  C_18 
REMARK   16  A    between atoms: C_18  and  C_20 
ROOT
HETATM    1  O   UNL     1      29.326 -18.534 -13.883  1.00  0.00    -0.776 OA
HETATM    2  H   UNL     1      29.831 -17.963 -14.480  1.00  0.00     0.167 HD
ENDROOT
BRANCH   1   3
HETATM    3  C   UNL     1      29.914 -19.544 -13.209  1.00  0.00     0.139 C 
HETATM    4  O   UNL     1      29.878 -20.679 -13.665  1.00  0.00    -0.650 OA
BRANCH   3   5
HETATM    5  C   UNL     1      30.605 -19.248 -11.904  1.00  0.00     0.110 C 
BRANCH   5   6
HETATM    6  C   UNL     1      30.992 -20.513 -11.126  1.00  0.00     0.010 C 
BRANCH   6   7
HETATM    7  C   UNL     1      31.516 -20.160  -9.729  1.00  0.00     0.001 C 
BRANCH   7   8
HETATM    8  C   UNL     1      30.370 -20.111  -8.712  1.00  0.00     0.000 C 
BRANCH   8   9
HETATM    9  C   UNL     1      30.895 -20.273  -7.281  1.00  0.00     0.000 C 
BRANCH   9  10
HETATM   10  C   UNL     1      30.677 -18.990  -6.473  1.00  0.00     0.004 C 
BRANCH  10  11
HETATM   11  C   UNL     1      30.089 -17.875  -7.343  1.00  0.00     0.027 C 
BRANCH  11  12
HETATM   12  C   UNL     1      30.960 -16.646  -7.240  1.00  0.00    -0.031 C 
HETATM   13  C   UNL     1      31.605 -16.029  -8.250  1.00  0.00    -0.031 C 
BRANCH  13  14
HETATM   14  C   UNL     1      31.611 -16.430  -9.710  1.00  0.00     0.027 C 
BRANCH  14  15
HETATM   15  C   UNL     1      31.032 -15.313 -10.596  1.00  0.00     0.004 C 
BRANCH  15  16
HETATM   16  C   UNL     1      29.652 -14.794 -10.145  1.00  0.00     0.000 C 
BRANCH  16  17
HETATM   17  C   UNL     1      29.366 -13.355 -10.605  1.00  0.00     0.000 C 
BRANCH  17  18
HETATM   18  C   UNL     1      29.242 -12.405  -9.406  1.00  0.00     0.000 C 
BRANCH  18  19
HETATM   19  C   UNL     1      29.219 -13.186  -8.087  1.00  0.00    -0.000 C 
BRANCH  19  20
HETATM   20  C   UNL     1      29.206 -12.236  -6.884  1.00  0.00    -0.005 C 
HETATM   21  C   UNL     1      29.451 -12.993  -5.582  1.00  0.00     0.005 C 
ENDBRANCH  19  20
ENDBRANCH  18  19
ENDBRANCH  17  18
ENDBRANCH  16  17
ENDBRANCH  15  16
ENDBRANCH  14  15
ENDBRANCH  13  14
ENDBRANCH  11  12
ENDBRANCH  10  11
ENDBRANCH   9  10
ENDBRANCH   8   9
ENDBRANCH   7   8
ENDBRANCH   6   7
ENDBRANCH   5   6
ENDBRANCH   3   5
ENDBRANCH   1   3
TORSDOF 16
ENDMDL
MODEL 6
REMARK VINA RESULT:      -4.0      4.478      7.769
REMARK  16 active torsions:
REMARK  status: ('A' for Active; 'I' for Inactive)
REMARK    1  A    between atoms: O_1  and  C_20 
REMARK    2  A    between atoms: C_3  and  C_4 
REMARK    3  A    between atoms: C_3  and  C_5 
REMARK    4  A    between atoms: C_4  and  C_8 
REMARK    5  A    between atoms: C_5  and  C_11 
REMARK    6  A    between atoms: C_6  and  C_7 
REMARK    7  A    between atoms: C_6  and  C_9 
REMARK    8  A    between atoms: C_7  and  C_10 
REMARK    9  A    between atoms: C_8  and  C_12 
REMARK   10  A    between atoms: C_9  and  C_13 
REMARK   11  A    between atoms: C_10  and  C_14 
REMARK   12  A    between atoms: C_11  and  C_15 
REMARK   13  A    between atoms: C_12  and  C_16 
REMARK   14  A    between atoms: C_13  and  C_17 
REMARK   15  A    between atoms: C_14  and  C_18 
REMARK   16  A    between atoms: C_18  and  C_20 
ROOT
HETATM    1  O   UNL     1      39.616   6.740 -17.957  1.00  0.00    -0.776 OA
HETATM    2  H   UNL     1      40.037   6.824 -18.824  1.00  0.00     0.167 HD
ENDROOT
BRANCH   1   3
HETATM    3  C   UNL     1      39.602   7.764 -17.078  1.00  0.00     0.139 C 
HETATM    4  O   UNL     1      39.566   8.916 -17.488  1.00  0.00    -0.650 OA
BRANCH   3   5
HETATM    5  C   UNL     1      39.630   7.462 -15.603  1.00  0.00     0.110 C 
BRANCH   5   6
HETATM    6  C   UNL     1      40.638   8.323 -14.829  1.00  0.00     0.010 C 
BRANCH   6   7
HETATM    7  C   UNL     1      40.255   8.420 -13.347  1.00  0.00     0.001 C 
BRANCH   7   8
HETATM    8  C   UNL     1      39.275   7.307 -12.962  1.00  0.00     0.000 C 
BRANCH   8   9
HETATM    9  C   UNL     1      39.276   7.072 -11.447  1.00  0.00     0.000 C 
BRANCH   9  10
HETATM   10  C   UNL     1      38.085   7.775 -10.787  1.00  0.00     0.004 C 
BRANCH  10  11
HETATM   11  C   UNL     1      38.483   8.418  -9.456  1.00  0.00     0.027 C 
BRANCH  11  12
HETATM   12  C   UNL     1      39.276   7.427  -8.638  1.00  0.00    -0.031 C 
HETATM   13  C   UNL     1      39.865   7.654  -7.446  1.00  0.00    -0.031 C 
BRANCH  13  14
HETATM   14  C   UNL     1      39.873   8.950  -6.664  1.00  0.00     0.027 C 
BRANCH  14  15
HETATM   15  C   UNL     1      38.812   8.934  -5.549  1.00  0.00     0.004 C 
BRANCH  15  16
HETATM   16  C   UNL     1      38.563   7.544  -4.929  1.00  0.00     0.000 C 
BRANCH  16  17
HETATM   17  C   UNL     1      39.299   7.334  -3.596  1.00  0.00     0.000 C 
BRANCH  17  18
HETATM   18  C   UNL     1      39.246   8.599  -2.729  1.00  0.00     0.000 C 
BRANCH  18  19
HETATM   19  C   UNL     1      40.646   8.989  -2.240  1.00  0.00    -0.000 C 
BRANCH  19  20
HETATM   20  C   UNL     1      41.237  10.114  -3.098  1.00  0.00    -0.005 C 
HETATM   21  C   UNL     1      40.347  11.353  -3.071  1.00  0.00     0.005 C 
ENDBRANCH  19  20
ENDBRANCH  18  19
ENDBRANCH  17  18
ENDBRANCH  16  17
ENDBRANCH  15  16
ENDBRANCH  14  15
ENDBRANCH  13  14
ENDBRANCH  11  12
ENDBRANCH  10  11
ENDBRANCH   9  10
ENDBRANCH   8   9
ENDBRANCH   7   8
ENDBRANCH   6   7
ENDBRANCH   5   6
ENDBRANCH   3   5
ENDBRANCH   1   3
TORSDOF 16
ENDMDL
MODEL 7
REMARK VINA RESULT:      -4.0      3.981      7.383
REMARK  16 active torsions:
REMARK  status: ('A' for Active; 'I' for Inactive)
REMARK    1  A    between atoms: O_1  and  C_20 
REMARK    2  A    between atoms: C_3  and  C_4 
REMARK    3  A    between atoms: C_3  and  C_5 
REMARK    4  A    between atoms: C_4  and  C_8 
REMARK    5  A    between atoms: C_5  and  C_11 
REMARK    6  A    between atoms: C_6  and  C_7 
REMARK    7  A    between atoms: C_6  and  C_9 
REMARK    8  A    between atoms: C_7  and  C_10 
REMARK    9  A    between atoms: C_8  and  C_12 
REMARK   10  A    between atoms: C_9  and  C_13 
REMARK   11  A    between atoms: C_10  and  C_14 
REMARK   12  A    between atoms: C_11  and  C_15 
REMARK   13  A    between atoms: C_12  and  C_16 
REMARK   14  A    between atoms: C_13  and  C_17 
REMARK   15  A    between atoms: C_14  and  C_18 
REMARK   16  A    between atoms: C_18  and  C_20 
ROOT
HETATM    1  O   UNL     1      39.546  10.047  -8.991  1.00  0.00    -0.776 OA
HETATM    2  H   UNL     1      39.837  10.487  -8.179  1.00  0.00     0.167 HD
ENDROOT
BRANCH   1   3
HETATM    3  C   UNL     1      40.307   9.113  -9.598  1.00  0.00     0.139 C 
HETATM    4  O   UNL     1      41.427   8.869  -9.169  1.00  0.00    -0.650 OA
BRANCH   3   5
HETATM    5  C   UNL     1      39.757   8.387 -10.797  1.00  0.00     0.110 C 
BRANCH   5   6
HETATM    6  C   UNL     1      39.542   9.302 -12.010  1.00  0.00     0.010 C 
BRANCH   6   7
HETATM    7  C   UNL     1      40.610   9.054 -13.082  1.00  0.00     0.001 C 
BRANCH   7   8
HETATM    8  C   UNL     1      40.400   7.696 -13.760  1.00  0.00     0.000 C 
BRANCH   8   9
HETATM    9  C   UNL     1      39.887   7.869 -15.195  1.00  0.00     0.000 C 
BRANCH   9  10
HETATM   10  C   UNL     1      38.374   7.636 -15.262  1.00  0.00     0.004 C 
BRANCH  10  11
HETATM   11  C   UNL     1      37.599   8.950 -15.134  1.00  0.00     0.027 C 
BRANCH  11  12
HETATM   12  C   UNL     1      37.222   9.446 -16.509  1.00  0.00    -0.031 C 
HETATM   13  C   UNL     1      37.895  10.346 -17.254  1.00  0.00    -0.031 C 
BRANCH  13  14
HETATM   14  C   UNL     1      39.173  11.067 -16.880  1.00  0.00     0.027 C 
BRANCH  14  15
HETATM   15  C   UNL     1      40.184  11.045 -18.040  1.00  0.00     0.004 C 
BRANCH  15  16
HETATM   16  C   UNL     1      41.139   9.834 -18.029  1.00  0.00     0.000 C 
BRANCH  16  17
HETATM   17  C   UNL     1      40.929   8.885 -19.221  1.00  0.00     0.000 C 
BRANCH  17  18
HETATM   18  C   UNL     1      40.225   7.594 -18.782  1.00  0.00     0.000 C 
BRANCH  18  19
HETATM   19  C   UNL     1      38.814   7.508 -19.375  1.00  0.00    -0.000 C 
BRANCH  19  20
HETATM   20  C   UNL     1      38.638   8.503 -20.529  1.00  0.00    -0.005 C 
HETATM   21  C   UNL     1      37.206   9.023 -20.594  1.00  0.00     0.005 C 
ENDBRANCH  19  20
ENDBRANCH  18  19
ENDBRANCH  17  18
ENDBRANCH  16  17
ENDBRANCH  15  16
ENDBRANCH  14  15
ENDBRANCH  13  14
ENDBRANCH  11  12
ENDBRANCH  10  11
ENDBRANCH   9  10
ENDBRANCH   8   9
ENDBRANCH   7   8
ENDBRANCH   6   7
ENDBRANCH   5   6
ENDBRANCH   3   5
ENDBRANCH   1   3
TORSDOF 16
ENDMDL
MODEL 8
REMARK VINA RESULT:      -4.0      4.150      7.842
REMARK  16 active torsions:
REMARK  status: ('A' for Active; 'I' for Inactive)
REMARK    1  A    between atoms: O_1  and  C_20 
REMARK    2  A    between atoms: C_3  and  C_4 
REMARK    3  A    between atoms: C_3  and  C_5 
REMARK    4  A    between atoms: C_4  and  C_8 
REMARK    5  A    between atoms: C_5  and  C_11 
REMARK    6  A    between atoms: C_6  and  C_7 
REMARK    7  A    between atoms: C_6  and  C_9 
REMARK    8  A    between atoms: C_7  and  C_10 
REMARK    9  A    between atoms: C_8  and  C_12 
REMARK   10  A    between atoms: C_9  and  C_13 
REMARK   11  A    between atoms: C_10  and  C_14 
REMARK   12  A    between atoms: C_11  and  C_15 
REMARK   13  A    between atoms: C_12  and  C_16 
REMARK   14  A    between atoms: C_13  and  C_17 
REMARK   15  A    between atoms: C_14  and  C_18 
REMARK   16  A    between atoms: C_18  and  C_20 
ROOT
HETATM    1  O   UNL     1      39.453   8.858  -7.526  1.00  0.00    -0.776 OA
HETATM    2  H   UNL     1      38.822   9.086  -6.828  1.00  0.00     0.167 HD
ENDROOT
BRANCH   1   3
HETATM    3  C   UNL     1      39.040   8.450  -8.744  1.00  0.00     0.139 C 
HETATM    4  O   UNL     1      39.198   7.284  -9.080  1.00  0.00    -0.650 OA
BRANCH   3   5
HETATM    5  C   UNL     1      38.390   9.447  -9.668  1.00  0.00     0.110 C 
BRANCH   5   6
HETATM    6  C   UNL     1      37.603   8.787 -10.809  1.00  0.00     0.010 C 
BRANCH   6   7
HETATM    7  C   UNL     1      37.419   9.758 -11.982  1.00  0.00     0.001 C 
BRANCH   7   8
HETATM    8  C   UNL     1      38.424  10.912 -11.900  1.00  0.00     0.000 C 
BRANCH   8   9
HETATM    9  C   UNL     1      39.199  11.062 -13.215  1.00  0.00     0.000 C 
BRANCH   9  10
HETATM   10  C   UNL     1      40.644  10.580 -13.052  1.00  0.00     0.004 C 
BRANCH  10  11
HETATM   11  C   UNL     1      40.955   9.416 -13.997  1.00  0.00     0.027 C 
BRANCH  11  12
HETATM   12  C   UNL     1      40.535   8.118 -13.350  1.00  0.00    -0.031 C 
HETATM   13  C   UNL     1      39.509   7.327 -13.722  1.00  0.00    -0.031 C 
BRANCH  13  14
HETATM   14  C   UNL     1      38.543   7.561 -14.865  1.00  0.00     0.027 C 
BRANCH  14  15
HETATM   15  C   UNL     1      39.113   7.033 -16.193  1.00  0.00     0.004 C 
BRANCH  15  16
HETATM   16  C   UNL     1      38.925   7.986 -17.390  1.00  0.00     0.000 C 
BRANCH  16  17
HETATM   17  C   UNL     1      40.235   8.287 -18.138  1.00  0.00     0.000 C 
BRANCH  17  18
HETATM   18  C   UNL     1      40.280   7.560 -19.488  1.00  0.00     0.000 C 
BRANCH  18  19
HETATM   19  C   UNL     1      38.866   7.262 -20.000  1.00  0.00    -0.000 C 
BRANCH  19  20
HETATM   20  C   UNL     1      38.428   8.295 -21.045  1.00  0.00    -0.005 C 
HETATM   21  C   UNL     1      37.196   9.063 -20.577  1.00  0.00     0.005 C 
ENDBRANCH  19  20
ENDBRANCH  18  19
ENDBRANCH  17  18
ENDBRANCH  16  17
ENDBRANCH  15  16
ENDBRANCH  14  15
ENDBRANCH  13  14
ENDBRANCH  11  12
ENDBRANCH  10  11
ENDBRANCH   9  10
ENDBRANCH   8   9
ENDBRANCH   7   8
ENDBRANCH   6   7
ENDBRANCH   5   6
ENDBRANCH   3   5
ENDBRANCH   1   3
TORSDOF 16
ENDMDL
MODEL 9
REMARK VINA RESULT:      -4.0      6.238      9.944
REMARK  16 active torsions:
REMARK  status: ('A' for Active; 'I' for Inactive)
REMARK    1  A    between atoms: O_1  and  C_20 
REMARK    2  A    between atoms: C_3  and  C_4 
REMARK    3  A    between atoms: C_3  and  C_5 
REMARK    4  A    between atoms: C_4  and  C_8 
REMARK    5  A    between atoms: C_5  and  C_11 
REMARK    6  A    between atoms: C_6  and  C_7 
REMARK    7  A    between atoms: C_6  and  C_9 
REMARK    8  A    between atoms: C_7  and  C_10 
REMARK    9  A    between atoms: C_8  and  C_12 
REMARK   10  A    between atoms: C_9  and  C_13 
REMARK   11  A    between atoms: C_10  and  C_14 
REMARK   12  A    between atoms: C_11  and  C_15 
REMARK   13  A    between atoms: C_12  and  C_16 
REMARK   14  A    between atoms: C_13  and  C_17 
REMARK   15  A    between atoms: C_14  and  C_18 
REMARK   16  A    between atoms: C_18  and  C_20 
ROOT
HETATM    1  O   UNL     1      41.289   8.546  -4.137  1.00  0.00    -0.776 OA
HETATM    2  H   UNL     1      41.008   8.333  -3.235  1.00  0.00     0.167 HD
ENDROOT
BRANCH   1   3
HETATM    3  C   UNL     1      40.630   9.456  -4.884  1.00  0.00     0.139 C 
HETATM    4  O   UNL     1      41.173  10.516  -5.168  1.00  0.00    -0.650 OA
BRANCH   3   5
HETATM    5  C   UNL     1      39.234   9.144  -5.354  1.00  0.00     0.110 C 
BRANCH   5   6
HETATM    6  C   UNL     1      38.903   7.646  -5.310  1.00  0.00     0.010 C 
BRANCH   6   7
HETATM    7  C   UNL     1      39.298   6.956  -6.622  1.00  0.00     0.001 C 
BRANCH   7   8
HETATM    8  C   UNL     1      39.072   7.887  -7.818  1.00  0.00     0.000 C 
BRANCH   8   9
HETATM    9  C   UNL     1      39.940   7.471  -9.012  1.00  0.00     0.000 C 
BRANCH   9  10
HETATM   10  C   UNL     1      41.119   8.433  -9.188  1.00  0.00     0.004 C 
BRANCH  10  11
HETATM   11  C   UNL     1      40.759   9.848  -8.728  1.00  0.00     0.027 C 
BRANCH  11  12
HETATM   12  C   UNL     1      40.533  10.726  -9.935  1.00  0.00    -0.031 C 
HETATM   13  C   UNL     1      39.344  11.140 -10.420  1.00  0.00    -0.031 C 
BRANCH  13  14
HETATM   14  C   UNL     1      37.971  10.814  -9.871  1.00  0.00     0.027 C 
BRANCH  14  15
HETATM   15  C   UNL     1      37.314   9.668 -10.661  1.00  0.00     0.004 C 
BRANCH  15  16
HETATM   16  C   UNL     1      38.097   9.229 -11.915  1.00  0.00     0.000 C 
BRANCH  16  17
HETATM   17  C   UNL     1      38.349   7.713 -11.972  1.00  0.00     0.000 C 
BRANCH  17  18
HETATM   18  C   UNL     1      39.641   7.397 -12.736  1.00  0.00     0.000 C 
BRANCH  18  19
HETATM   19  C   UNL     1      39.722   8.202 -14.038  1.00  0.00    -0.000 C 
BRANCH  19  20
HETATM   20  C   UNL     1      41.151   8.694 -14.296  1.00  0.00    -0.005 C 
HETATM   21  C   UNL     1      41.510   9.853 -13.371  1.00  0.00     0.005 C 
ENDBRANCH  19  20
ENDBRANCH  18  19
ENDBRANCH  17  18
ENDBRANCH  16  17
ENDBRANCH  15  16
ENDBRANCH  14  15
ENDBRANCH  13  14
ENDBRANCH  11  12
ENDBRANCH  10  11
ENDBRANCH   9  10
ENDBRANCH   8   9
ENDBRANCH   7   8
ENDBRANCH   6   7
ENDBRANCH   5   6
ENDBRANCH   3   5
ENDBRANCH   1   3
TORSDOF 16
ENDMDL
MODEL 10
REMARK VINA RESULT:      -3.9     24.704     27.153
REMARK  16 active torsions:
REMARK  status: ('A' for Active; 'I' for Inactive)
REMARK    1  A    between atoms: O_1  and  C_20 
REMARK    2  A    between atoms: C_3  and  C_4 
REMARK    3  A    between atoms: C_3  and  C_5 
REMARK    4  A    between atoms: C_4  and  C_8 
REMARK    5  A    between atoms: C_5  and  C_11 
REMARK    6  A    between atoms: C_6  and  C_7 
REMARK    7  A    between atoms: C_6  and  C_9 
REMARK    8  A    between atoms: C_7  and  C_10 
REMARK    9  A    between atoms: C_8  and  C_12 
REMARK   10  A    between atoms: C_9  and  C_13 
REMARK   11  A    between atoms: C_10  and  C_14 
REMARK   12  A    between atoms: C_11  and  C_15 
REMARK   13  A    between atoms: C_12  and  C_16 
REMARK   14  A    between atoms: C_13  and  C_17 
REMARK   15  A    between atoms: C_14  and  C_18 
REMARK   16  A    between atoms: C_18  and  C_20 
ROOT
HETATM    1  O   UNL     1      32.464 -20.557 -14.688  1.00  0.00    -0.776 OA
HETATM    2  H   UNL     1      33.099 -19.851 -14.876  1.00  0.00     0.167 HD
ENDROOT
BRANCH   1   3
HETATM    3  C   UNL     1      31.165 -20.448 -15.038  1.00  0.00     0.139 C 
HETATM    4  O   UNL     1      30.781 -20.917 -16.101  1.00  0.00    -0.650 OA
BRANCH   3   5
HETATM    5  C   UNL     1      30.214 -19.747 -14.104  1.00  0.00     0.110 C 
BRANCH   5   6
HETATM    6  C   UNL     1      30.845 -19.397 -12.750  1.00  0.00     0.010 C 
BRANCH   6   7
HETATM    7  C   UNL     1      30.059 -18.282 -12.048  1.00  0.00     0.001 C 
BRANCH   7   8
HETATM    8  C   UNL     1      30.251 -16.942 -12.767  1.00  0.00     0.000 C 
BRANCH   8   9
HETATM    9  C   UNL     1      31.628 -16.343 -12.459  1.00  0.00     0.000 C 
BRANCH   9  10
HETATM   10  C   UNL     1      32.326 -15.895 -13.748  1.00  0.00     0.004 C 
BRANCH  10  11
HETATM   11  C   UNL     1      31.572 -16.382 -14.989  1.00  0.00     0.027 C 
BRANCH  11  12
HETATM   12  C   UNL     1      31.708 -15.359 -16.091  1.00  0.00    -0.031 C 
HETATM   13  C   UNL     1      30.727 -14.910 -16.900  1.00  0.00    -0.031 C 
BRANCH  13  14
HETATM   14  C   UNL     1      29.274 -15.334 -16.894  1.00  0.00     0.027 C 
BRANCH  14  15
HETATM   15  C   UNL     1      28.457 -14.504 -15.887  1.00  0.00     0.004 C 
BRANCH  15  16
HETATM   16  C   UNL     1      28.601 -12.978 -16.055  1.00  0.00     0.000 C 
BRANCH  16  17
HETATM   17  C   UNL     1      29.148 -12.279 -14.799  1.00  0.00     0.000 C 
BRANCH  17  18
HETATM   18  C   UNL     1      29.554 -13.301 -13.730  1.00  0.00     0.000 C 
BRANCH  18  19
HETATM   19  C   UNL     1      29.304 -12.750 -12.320  1.00  0.00    -0.000 C 
BRANCH  19  20
HETATM   20  C   UNL     1      30.543 -12.919 -11.434  1.00  0.00    -0.005 C 
HETATM   21  C   UNL     1      31.790 -12.371 -12.120  1.00  0.00     0.005 C 
ENDBRANCH  19  20
ENDBRANCH  18  19
ENDBRANCH  17  18
ENDBRANCH  16  17
ENDBRANCH  15  16
ENDBRANCH  14  15
ENDBRANCH  13  14
ENDBRANCH  11  12
ENDBRANCH  10  11
ENDBRANCH   9  10
ENDBRANCH   8   9
ENDBRANCH   7   8
ENDBRANCH   6   7
ENDBRANCH   5   6
ENDBRANCH   3   5
ENDBRANCH   1   3
TORSDOF 16
ENDMDL
MODEL 11
REMARK VINA RESULT:      -3.9      3.412      5.270
REMARK  16 active torsions:
REMARK  status: ('A' for Active; 'I' for Inactive)
REMARK    1  A    between atoms: O_1  and  C_20 
REMARK    2  A    between atoms: C_3  and  C_4 
REMARK    3  A    between atoms: C_3  and  C_5 
REMARK    4  A    between atoms: C_4  and  C_8 
REMARK    5  A    between atoms: C_5  and  C_11 
REMARK    6  A    between atoms: C_6  and  C_7 
REMARK    7  A    between atoms: C_6  and  C_9 
REMARK    8  A    between atoms: C_7  and  C_10 
REMARK    9  A    between atoms: C_8  and  C_12 
REMARK   10  A    between atoms: C_9  and  C_13 
REMARK   11  A    between atoms: C_10  and  C_14 
REMARK   12  A    between atoms: C_11  and  C_15 
REMARK   13  A    between atoms: C_12  and  C_16 
REMARK   14  A    between atoms: C_13  and  C_17 
REMARK   15  A    between atoms: C_14  and  C_18 
REMARK   16  A    between atoms: C_18  and  C_20 
ROOT
HETATM    1  O   UNL     1      43.058  12.346 -15.826  1.00  0.00    -0.776 OA
HETATM    2  H   UNL     1      43.336  11.868 -15.032  1.00  0.00     0.167 HD
ENDROOT
BRANCH   1   3
HETATM    3  C   UNL     1      41.952  11.989 -16.513  1.00  0.00     0.139 C 
HETATM    4  O   UNL     1      41.496  12.742 -17.363  1.00  0.00    -0.650 OA
BRANCH   3   5
HETATM    5  C   UNL     1      41.303  10.663 -16.215  1.00  0.00     0.110 C 
BRANCH   5   6
HETATM    6  C   UNL     1      40.338  10.203 -17.317  1.00  0.00     0.010 C 
BRANCH   6   7
HETATM    7  C   UNL     1      40.558   8.724 -17.658  1.00  0.00     0.001 C 
BRANCH   7   8
HETATM    8  C   UNL     1      39.236   7.950 -17.613  1.00  0.00     0.000 C 
BRANCH   8   9
HETATM    9  C   UNL     1      39.217   6.958 -16.444  1.00  0.00     0.000 C 
BRANCH   9  10
HETATM   10  C   UNL     1      38.468   7.548 -15.244  1.00  0.00     0.004 C 
BRANCH  10  11
HETATM   11  C   UNL     1      39.163   7.197 -13.926  1.00  0.00     0.027 C 
BRANCH  11  12
HETATM   12  C   UNL     1      40.379   8.075 -13.750  1.00  0.00    -0.031 C 
HETATM   13  C   UNL     1      40.565   9.013 -12.799  1.00  0.00    -0.031 C 
BRANCH  13  14
HETATM   14  C   UNL     1      39.598   9.405 -11.701  1.00  0.00     0.027 C 
BRANCH  14  15
HETATM   15  C   UNL     1      40.292   9.418 -10.328  1.00  0.00     0.004 C 
BRANCH  15  16
HETATM   16  C   UNL     1      40.678   8.023  -9.796  1.00  0.00     0.000 C 
BRANCH  16  17
HETATM   17  C   UNL     1      39.648   7.443  -8.812  1.00  0.00     0.000 C 
BRANCH  17  18
HETATM   18  C   UNL     1      38.703   8.535  -8.294  1.00  0.00     0.000 C 
BRANCH  18  19
HETATM   19  C   UNL     1      39.042   8.916  -6.848  1.00  0.00    -0.000 C 
BRANCH  19  20
HETATM   20  C   UNL     1      39.630   7.721  -6.087  1.00  0.00    -0.005 C 
HETATM   21  C   UNL     1      38.549   6.982  -5.304  1.00  0.00     0.005 C 
ENDBRANCH  19  20
ENDBRANCH  18  19
ENDBRANCH  17  18
ENDBRANCH  16  17
ENDBRANCH  15  16
ENDBRANCH  14  15
ENDBRANCH  13  14
ENDBRANCH  11  12
ENDBRANCH  10  11
ENDBRANCH   9  10
ENDBRANCH   8   9
ENDBRANCH   7   8
ENDBRANCH   6   7
ENDBRANCH   5   6
ENDBRANCH   3   5
ENDBRANCH   1   3
TORSDOF 16
ENDMDL
MODEL 12
REMARK VINA RESULT:      -3.9     25.128     27.661
REMARK  16 active torsions:
REMARK  status: ('A' for Active; 'I' for Inactive)
REMARK    1  A    between atoms: O_1  and  C_20 
REMARK    2  A    between atoms: C_3  and  C_4 
REMARK    3  A    between atoms: C_3  and  C_5 
REMARK    4  A    between atoms: C_4  and  C_8 
REMARK    5  A    between atoms: C_5  and  C_11 
REMARK    6  A    between atoms: C_6  and  C_7 
REMARK    7  A    between atoms: C_6  and  C_9 
REMARK    8  A    between atoms: C_7  and  C_10 
REMARK    9  A    between atoms: C_8  and  C_12 
REMARK   10  A    between atoms: C_9  and  C_13 
REMARK   11  A    between atoms: C_10  and  C_14 
REMARK   12  A    between atoms: C_11  and  C_15 
REMARK   13  A    between atoms: C_12  and  C_16 
REMARK   14  A    between atoms: C_13  and  C_17 
REMARK   15  A    between atoms: C_14  and  C_18 
REMARK   16  A    between atoms: C_18  and  C_20 
ROOT
HETATM    1  O   UNL     1      32.817 -20.297 -14.247  1.00  0.00    -0.776 OA
HETATM    2  H   UNL     1      33.510 -19.944 -14.823  1.00  0.00     0.167 HD
ENDROOT
BRANCH   1   3
HETATM    3  C   UNL     1      31.524 -20.321 -14.634  1.00  0.00     0.139 C 
HETATM    4  O   UNL     1      31.194 -20.990 -15.604  1.00  0.00    -0.650 OA
BRANCH   3   5
HETATM    5  C   UNL     1      30.513 -19.519 -13.858  1.00  0.00     0.110 C 
BRANCH   5   6
HETATM    6  C   UNL     1      30.631 -19.709 -12.339  1.00  0.00     0.010 C 
BRANCH   6   7
HETATM    7  C   UNL     1      30.253 -18.422 -11.594  1.00  0.00     0.001 C 
BRANCH   7   8
HETATM    8  C   UNL     1      30.953 -18.354 -10.232  1.00  0.00     0.000 C 
BRANCH   8   9
HETATM    9  C   UNL     1      29.932 -18.304  -9.090  1.00  0.00     0.000 C 
BRANCH   9  10
HETATM   10  C   UNL     1      30.037 -16.981  -8.324  1.00  0.00     0.004 C 
BRANCH  10  11
HETATM   11  C   UNL     1      30.038 -15.783  -9.277  1.00  0.00     0.027 C 
BRANCH  11  12
HETATM   12  C   UNL     1      31.199 -14.878  -8.943  1.00  0.00    -0.031 C 
HETATM   13  C   UNL     1      32.257 -14.599  -9.732  1.00  0.00    -0.031 C 
BRANCH  13  14
HETATM   14  C   UNL     1      32.524 -15.135 -11.123  1.00  0.00     0.027 C 
BRANCH  14  15
HETATM   15  C   UNL     1      31.883 -14.238 -12.197  1.00  0.00     0.004 C 
BRANCH  15  16
HETATM   16  C   UNL     1      30.775 -14.925 -13.020  1.00  0.00     0.000 C 
BRANCH  16  17
HETATM   17  C   UNL     1      29.783 -13.933 -13.649  1.00  0.00     0.000 C 
BRANCH  17  18
HETATM   18  C   UNL     1      29.519 -12.747 -12.712  1.00  0.00     0.000 C 
BRANCH  18  19
HETATM   19  C   UNL     1      28.563 -13.143 -11.581  1.00  0.00    -0.000 C 
BRANCH  19  20
HETATM   20  C   UNL     1      28.664 -12.165 -10.404  1.00  0.00    -0.005 C 
HETATM   21  C   UNL     1      30.057 -11.549 -10.319  1.00  0.00     0.005 C 
ENDBRANCH  19  20
ENDBRANCH  18  19
ENDBRANCH  17  18
ENDBRANCH  16  17
ENDBRANCH  15  16
ENDBRANCH  14  15
ENDBRANCH  13  14
ENDBRANCH  11  12
ENDBRANCH  10  11
ENDBRANCH   9  10
ENDBRANCH   8   9
ENDBRANCH   7   8
ENDBRANCH   6   7
ENDBRANCH   5   6
ENDBRANCH   3   5
ENDBRANCH   1   3
TORSDOF 16
ENDMDL
MODEL 13
REMARK VINA RESULT:      -3.9      4.134      8.093
REMARK  16 active torsions:
REMARK  status: ('A' for Active; 'I' for Inactive)
REMARK    1  A    between atoms: O_1  and  C_20 
REMARK    2  A    between atoms: C_3  and  C_4 
REMARK    3  A    between atoms: C_3  and  C_5 
REMARK    4  A    between atoms: C_4  and  C_8 
REMARK    5  A    between atoms: C_5  and  C_11 
REMARK    6  A    between atoms: C_6  and  C_7 
REMARK    7  A    between atoms: C_6  and  C_9 
REMARK    8  A    between atoms: C_7  and  C_10 
REMARK    9  A    between atoms: C_8  and  C_12 
REMARK   10  A    between atoms: C_9  and  C_13 
REMARK   11  A    between atoms: C_10  and  C_14 
REMARK   12  A    between atoms: C_11  and  C_15 
REMARK   13  A    between atoms: C_12  and  C_16 
REMARK   14  A    between atoms: C_13  and  C_17 
REMARK   15  A    between atoms: C_14  and  C_18 
REMARK   16  A    between atoms: C_18  and  C_20 
ROOT
HETATM    1  O   UNL     1      42.350  13.659 -10.785  1.00  0.00    -0.776 OA
HETATM    2  H   UNL     1      41.518  13.927 -10.369  1.00  0.00     0.167 HD
ENDROOT
BRANCH   1   3
HETATM    3  C   UNL     1      42.422  12.574 -11.584  1.00  0.00     0.139 C 
HETATM    4  O   UNL     1      43.480  12.292 -12.130  1.00  0.00    -0.650 OA
BRANCH   3   5
HETATM    5  C   UNL     1      41.191  11.730 -11.784  1.00  0.00     0.110 C 
BRANCH   5   6
HETATM    6  C   UNL     1      41.303  10.339 -11.145  1.00  0.00     0.010 C 
BRANCH   6   7
HETATM    7  C   UNL     1      40.820  10.362  -9.689  1.00  0.00     0.001 C 
BRANCH   7   8
HETATM    8  C   UNL     1      41.336   9.139  -8.923  1.00  0.00     0.000 C 
BRANCH   8   9
HETATM    9  C   UNL     1      40.555   7.877  -9.309  1.00  0.00     0.000 C 
BRANCH   9  10
HETATM   10  C   UNL     1      39.056   8.066  -9.052  1.00  0.00     0.004 C 
BRANCH  10  11
HETATM   11  C   UNL     1      38.215   7.444 -10.170  1.00  0.00     0.027 C 
BRANCH  11  12
HETATM   12  C   UNL     1      38.021   8.456 -11.274  1.00  0.00    -0.031 C 
HETATM   13  C   UNL     1      38.626   8.460 -12.478  1.00  0.00    -0.031 C 
BRANCH  13  14
HETATM   14  C   UNL     1      39.641   7.462 -12.994  1.00  0.00     0.027 C 
BRANCH  14  15
HETATM   15  C   UNL     1      39.978   7.724 -14.472  1.00  0.00     0.004 C 
BRANCH  15  16
HETATM   16  C   UNL     1      39.019   7.050 -15.473  1.00  0.00     0.000 C 
BRANCH  16  17
HETATM   17  C   UNL     1      38.526   8.001 -16.576  1.00  0.00     0.000 C 
BRANCH  17  18
HETATM   18  C   UNL     1      39.561   8.125 -17.702  1.00  0.00     0.000 C 
BRANCH  18  19
HETATM   19  C   UNL     1      39.199   7.217 -18.884  1.00  0.00    -0.000 C 
BRANCH  19  20
HETATM   20  C   UNL     1      39.014   8.031 -20.169  1.00  0.00    -0.005 C 
HETATM   21  C   UNL     1      37.608   8.616 -20.253  1.00  0.00     0.005 C 
ENDBRANCH  19  20
ENDBRANCH  18  19
ENDBRANCH  17  18
ENDBRANCH  16  17
ENDBRANCH  15  16
ENDBRANCH  14  15
ENDBRANCH  13  14
ENDBRANCH  11  12
ENDBRANCH  10  11
ENDBRANCH   9  10
ENDBRANCH   8   9
ENDBRANCH   7   8
ENDBRANCH   6   7
ENDBRANCH   5   6
ENDBRANCH   3   5
ENDBRANCH   1   3
TORSDOF 16
ENDMDL
MODEL 14
REMARK VINA RESULT:      -3.9      4.724      8.306
REMARK  16 active torsions:
REMARK  status: ('A' for Active; 'I' for Inactive)
REMARK    1  A    between atoms: O_1  and  C_20 
REMARK    2  A    between atoms: C_3  and  C_4 
REMARK    3  A    between atoms: C_3  and  C_5 
REMARK    4  A    between atoms: C_4  and  C_8 
REMARK    5  A    between atoms: C_5  and  C_11 
REMARK    6  A    between atoms: C_6  and  C_7 
REMARK    7  A    between atoms: C_6  and  C_9 
REMARK    8  A    between atoms: C_7  and  C_10 
REMARK    9  A    between atoms: C_8  and  C_12 
REMARK   10  A    between atoms: C_9  and  C_13 
REMARK   11  A    between atoms: C_10  and  C_14 
REMARK   12  A    between atoms: C_11  and  C_15 
REMARK   13  A    between atoms: C_12  and  C_16 
REMARK   14  A    between atoms: C_13  and  C_17 
REMARK   15  A    between atoms: C_14  and  C_18 
REMARK   16  A    between atoms: C_18  and  C_20 
ROOT
HETATM    1  O   UNL     1      39.568   6.736  -7.318  1.00  0.00    -0.776 OA
HETATM    2  H   UNL     1      39.616   6.024  -7.972  1.00  0.00     0.167 HD
ENDROOT
BRANCH   1   3
HETATM    3  C   UNL     1      39.212   7.991  -7.666  1.00  0.00     0.139 C 
HETATM    4  O   UNL     1      38.784   8.759  -6.815  1.00  0.00    -0.650 OA
BRANCH   3   5
HETATM    5  C   UNL     1      39.350   8.418  -9.104  1.00  0.00     0.110 C 
BRANCH   5   6
HETATM    6  C   UNL     1      38.562   7.528 -10.076  1.00  0.00     0.010 C 
BRANCH   6   7
HETATM    7  C   UNL     1      39.487   6.923 -11.139  1.00  0.00     0.001 C 
BRANCH   7   8
HETATM    8  C   UNL     1      39.241   7.567 -12.508  1.00  0.00     0.000 C 
BRANCH   8   9
HETATM    9  C   UNL     1      40.286   8.649 -12.805  1.00  0.00     0.000 C 
BRANCH   9  10
HETATM   10  C   UNL     1      39.608   9.971 -13.178  1.00  0.00     0.004 C 
BRANCH  10  11
HETATM   11  C   UNL     1      38.085   9.869 -13.065  1.00  0.00     0.027 C 
BRANCH  11  12
HETATM   12  C   UNL     1      37.454  10.324 -14.359  1.00  0.00    -0.031 C 
HETATM   13  C   UNL     1      37.298   9.592 -15.480  1.00  0.00    -0.031 C 
BRANCH  13  14
HETATM   14  C   UNL     1      37.724   8.156 -15.699  1.00  0.00     0.027 C 
BRANCH  14  15
HETATM   15  C   UNL     1      39.151   8.080 -16.270  1.00  0.00     0.004 C 
BRANCH  15  16
HETATM   16  C   UNL     1      39.303   7.139 -17.483  1.00  0.00     0.000 C 
BRANCH  16  17
HETATM   17  C   UNL     1      39.512   7.888 -18.809  1.00  0.00     0.000 C 
BRANCH  17  18
HETATM   18  C   UNL     1      38.191   8.464 -19.333  1.00  0.00     0.000 C 
BRANCH  18  19
HETATM   19  C   UNL     1      38.158   8.456 -20.866  1.00  0.00    -0.000 C 
BRANCH  19  20
HETATM   20  C   UNL     1      37.448   9.702 -21.410  1.00  0.00    -0.005 C 
HETATM   21  C   UNL     1      38.376  10.913 -21.396  1.00  0.00     0.005 C 
ENDBRANCH  19  20
ENDBRANCH  18  19
ENDBRANCH  17  18
ENDBRANCH  16  17
ENDBRANCH  15  16
ENDBRANCH  14  15
ENDBRANCH  13  14
ENDBRANCH  11  12
ENDBRANCH  10  11
ENDBRANCH   9  10
ENDBRANCH   8   9
ENDBRANCH   7   8
ENDBRANCH   6   7
ENDBRANCH   5   6
ENDBRANCH   3   5
ENDBRANCH   1   3
TORSDOF 16
ENDMDL
MODEL 15
REMARK VINA RESULT:      -3.9      3.547      6.988
REMARK  16 active torsions:
REMARK  status: ('A' for Active; 'I' for Inactive)
REMARK    1  A    between atoms: O_1  and  C_20 
REMARK    2  A    between atoms: C_3  and  C_4 
REMARK    3  A    between atoms: C_3  and  C_5 
REMARK    4  A    between atoms: C_4  and  C_8 
REMARK    5  A    between atoms: C_5  and  C_11 
REMARK    6  A    between atoms: C_6  and  C_7 
REMARK    7  A    between atoms: C_6  and  C_9 
REMARK    8  A    between atoms: C_7  and  C_10 
REMARK    9  A    between atoms: C_8  and  C_12 
REMARK   10  A    between atoms: C_9  and  C_13 
REMARK   11  A    between atoms: C_10  and  C_14 
REMARK   12  A    between atoms: C_11  and  C_15 
REMARK   13  A    between atoms: C_12  and  C_16 
REMARK   14  A    between atoms: C_13  and  C_17 
REMARK   15  A    between atoms: C_14  and  C_18 
REMARK   16  A    between atoms: C_18  and  C_20 
ROOT
HETATM    1  O   UNL     1      43.701  12.606 -11.880  1.00  0.00    -0.776 OA
HETATM    2  H   UNL     1      44.553  12.236 -11.608  1.00  0.00     0.167 HD
ENDROOT
BRANCH   1   3
HETATM    3  C   UNL     1      42.955  12.026 -12.843  1.00  0.00     0.139 C 
HETATM    4  O   UNL     1      43.463  11.754 -13.923  1.00  0.00    -0.650 OA
BRANCH   3   5
HETATM    5  C   UNL     1      41.506  11.724 -12.564  1.00  0.00     0.110 C 
BRANCH   5   6
HETATM    6  C   UNL     1      41.183  10.224 -12.610  1.00  0.00     0.010 C 
BRANCH   6   7
HETATM    7  C   UNL     1      40.704   9.723 -11.242  1.00  0.00     0.001 C 
BRANCH   7   8
HETATM    8  C   UNL     1      39.943   8.400 -11.380  1.00  0.00     0.000 C 
BRANCH   8   9
HETATM    9  C   UNL     1      39.049   8.405 -12.625  1.00  0.00     0.000 C 
BRANCH   9  10
HETATM   10  C   UNL     1      39.332   7.181 -13.502  1.00  0.00     0.004 C 
BRANCH  10  11
HETATM   11  C   UNL     1      39.881   7.590 -14.872  1.00  0.00     0.027 C 
BRANCH  11  12
HETATM   12  C   UNL     1      38.758   7.591 -15.882  1.00  0.00    -0.031 C 
HETATM   13  C   UNL     1      38.021   8.653 -16.266  1.00  0.00    -0.031 C 
BRANCH  13  14
HETATM   14  C   UNL     1      38.145  10.078 -15.770  1.00  0.00     0.027 C 
BRANCH  14  15
HETATM   15  C   UNL     1      39.066  10.907 -16.682  1.00  0.00     0.004 C 
BRANCH  15  16
HETATM   16  C   UNL     1      40.544  10.929 -16.244  1.00  0.00     0.000 C 
BRANCH  16  17
HETATM   17  C   UNL     1      41.497  10.332 -17.292  1.00  0.00     0.000 C 
BRANCH  17  18
HETATM   18  C   UNL     1      40.740   9.939 -18.567  1.00  0.00     0.000 C 
BRANCH  18  19
HETATM   19  C   UNL     1      40.929   8.450 -18.882  1.00  0.00    -0.000 C 
BRANCH  19  20
HETATM   20  C   UNL     1      40.029   8.012 -20.043  1.00  0.00    -0.005 C 
HETATM   21  C   UNL     1      38.895   7.117 -19.554  1.00  0.00     0.005 C 
ENDBRANCH  19  20
ENDBRANCH  18  19
ENDBRANCH  17  18
ENDBRANCH  16  17
ENDBRANCH  15  16
ENDBRANCH  14  15
ENDBRANCH  13  14
ENDBRANCH  11  12
ENDBRANCH  10  11
ENDBRANCH   9  10
ENDBRANCH   8   9
ENDBRANCH   7   8
ENDBRANCH   6   7
ENDBRANCH   5   6
ENDBRANCH   3   5
ENDBRANCH   1   3
TORSDOF 16
ENDMDL
MODEL 16
REMARK VINA RESULT:      -3.8      3.142      7.094
REMARK  16 active torsions:
REMARK  status: ('A' for Active; 'I' for Inactive)
REMARK    1  A    between atoms: O_1  and  C_20 
REMARK    2  A    between atoms: C_3  and  C_4 
REMARK    3  A    between atoms: C_3  and  C_5 
REMARK    4  A    between atoms: C_4  and  C_8 
REMARK    5  A    between atoms: C_5  and  C_11 
REMARK    6  A    between atoms: C_6  and  C_7 
REMARK    7  A    between atoms: C_6  and  C_9 
REMARK    8  A    between atoms: C_7  and  C_10 
REMARK    9  A    between atoms: C_8  and  C_12 
REMARK   10  A    between atoms: C_9  and  C_13 
REMARK   11  A    between atoms: C_10  and  C_14 
REMARK   12  A    between atoms: C_11  and  C_15 
REMARK   13  A    between atoms: C_12  and  C_16 
REMARK   14  A    between atoms: C_13  and  C_17 
REMARK   15  A    between atoms: C_14  and  C_18 
REMARK   16  A    between atoms: C_18  and  C_20 
ROOT
HETATM    1  O   UNL     1      38.828   9.903 -15.183  1.00  0.00    -0.776 OA
HETATM    2  H   UNL     1      37.918   9.803 -15.497  1.00  0.00     0.167 HD
ENDROOT
BRANCH   1   3
HETATM    3  C   UNL     1      39.807   9.061 -15.574  1.00  0.00     0.139 C 
HETATM    4  O   UNL     1      40.302   9.181 -16.687  1.00  0.00    -0.650 OA
BRANCH   3   5
HETATM    5  C   UNL     1      40.269   7.986 -14.626  1.00  0.00     0.110 C 
BRANCH   5   6
HETATM    6  C   UNL     1      40.360   8.464 -13.171  1.00  0.00     0.010 C 
BRANCH   6   7
HETATM    7  C   UNL     1      39.469   7.615 -12.256  1.00  0.00     0.001 C 
BRANCH   7   8
HETATM    8  C   UNL     1      38.308   8.446 -11.699  1.00  0.00     0.000 C 
BRANCH   8   9
HETATM    9  C   UNL     1      37.956   8.013 -10.271  1.00  0.00     0.000 C 
BRANCH   9  10
HETATM   10  C   UNL     1      38.958   6.975  -9.755  1.00  0.00     0.004 C 
BRANCH  10  11
HETATM   11  C   UNL     1      39.814   7.542  -8.619  1.00  0.00     0.027 C 
BRANCH  11  12
HETATM   12  C   UNL     1      39.176   7.206  -7.293  1.00  0.00    -0.031 C 
HETATM   13  C   UNL     1      38.811   8.076  -6.330  1.00  0.00    -0.031 C 
BRANCH  13  14
HETATM   14  C   UNL     1      38.965   9.582  -6.355  1.00  0.00     0.027 C 
BRANCH  14  15
HETATM   15  C   UNL     1      37.938  10.231  -7.300  1.00  0.00     0.004 C 
BRANCH  15  16
HETATM   16  C   UNL     1      38.395  11.569  -7.915  1.00  0.00     0.000 C 
BRANCH  16  17
HETATM   17  C   UNL     1      38.770  11.456  -9.402  1.00  0.00     0.000 C 
BRANCH  17  18
HETATM   18  C   UNL     1      40.259  11.758  -9.621  1.00  0.00     0.000 C 
BRANCH  18  19
HETATM   19  C   UNL     1      41.037  10.479  -9.951  1.00  0.00    -0.000 C 
BRANCH  19  20
HETATM   20  C   UNL     1      42.154  10.234  -8.930  1.00  0.00    -0.005 C 
HETATM   21  C   UNL     1      42.015  11.162  -7.728  1.00  0.00     0.005 C 
ENDBRANCH  19  20
ENDBRANCH  18  19
ENDBRANCH  17  18
ENDBRANCH  16  17
ENDBRANCH  15  16
ENDBRANCH  14  15
ENDBRANCH  13  14
ENDBRANCH  11  12
ENDBRANCH  10  11
ENDBRANCH   9  10
ENDBRANCH   8   9
ENDBRANCH   7   8
ENDBRANCH   6   7
ENDBRANCH   5   6
ENDBRANCH   3   5
ENDBRANCH   1   3
TORSDOF 16
ENDMDL
MODEL 17
REMARK VINA RESULT:      -3.8     24.880     27.595
REMARK  16 active torsions:
REMARK  status: ('A' for Active; 'I' for Inactive)
REMARK    1  A    between atoms: O_1  and  C_20 
REMARK    2  A    between atoms: C_3  and  C_4 
REMARK    3  A    between atoms: C_3  and  C_5 
REMARK    4  A    between atoms: C_4  and  C_8 
REMARK    5  A    between atoms: C_5  and  C_11 
REMARK    6  A    between atoms: C_6  and  C_7 
REMARK    7  A    between atoms: C_6  and  C_9 
REMARK    8  A    between atoms: C_7  and  C_10 
REMARK    9  A    between atoms: C_8  and  C_12 
REMARK   10  A    between atoms: C_9  and  C_13 
REMARK   11  A    between atoms: C_10  and  C_14 
REMARK   12  A    between atoms: C_11  and  C_15 
REMARK   13  A    between atoms: C_12  and  C_16 
REMARK   14  A    between atoms: C_13  and  C_17 
REMARK   15  A    between atoms: C_14  and  C_18 
REMARK   16  A    between atoms: C_18  and  C_20 
ROOT
HETATM    1  O   UNL     1      29.851 -21.019  -8.969  1.00  0.00    -0.776 OA
HETATM    2  H   UNL     1      30.580 -21.618  -8.753  1.00  0.00     0.167 HD
ENDROOT
BRANCH   1   3
HETATM    3  C   UNL     1      30.066 -19.712  -9.230  1.00  0.00     0.139 C 
HETATM    4  O   UNL     1      29.429 -18.860  -8.626  1.00  0.00    -0.650 OA
BRANCH   3   5
HETATM    5  C   UNL     1      31.093 -19.333 -10.265  1.00  0.00     0.110 C 
BRANCH   5   6
HETATM    6  C   UNL     1      30.746 -19.838 -11.672  1.00  0.00     0.010 C 
BRANCH   6   7
HETATM    7  C   UNL     1      30.239 -18.693 -12.558  1.00  0.00     0.001 C 
BRANCH   7   8
HETATM    8  C   UNL     1      30.875 -17.361 -12.146  1.00  0.00     0.000 C 
BRANCH   8   9
HETATM    9  C   UNL     1      29.807 -16.278 -11.951  1.00  0.00     0.000 C 
BRANCH   9  10
HETATM   10  C   UNL     1      29.739 -15.841 -10.484  1.00  0.00     0.004 C 
BRANCH  10  11
HETATM   11  C   UNL     1      31.121 -15.454  -9.951  1.00  0.00     0.027 C 
BRANCH  11  12
HETATM   12  C   UNL     1      30.964 -14.689  -8.658  1.00  0.00    -0.031 C 
HETATM   13  C   UNL     1      30.858 -13.351  -8.521  1.00  0.00    -0.031 C 
BRANCH  13  14
HETATM   14  C   UNL     1      30.880 -12.316  -9.626  1.00  0.00     0.027 C 
BRANCH  14  15
HETATM   15  C   UNL     1      29.454 -11.887 -10.015  1.00  0.00     0.004 C 
BRANCH  15  16
HETATM   16  C   UNL     1      29.082 -12.175 -11.484  1.00  0.00     0.000 C 
BRANCH  16  17
HETATM   17  C   UNL     1      30.291 -12.557 -12.353  1.00  0.00     0.000 C 
BRANCH  17  18
HETATM   18  C   UNL     1      29.983 -12.366 -13.844  1.00  0.00     0.000 C 
BRANCH  18  19
HETATM   19  C   UNL     1      28.670 -13.059 -14.227  1.00  0.00    -0.000 C 
BRANCH  19  20
HETATM   20  C   UNL     1      28.203 -12.624 -15.621  1.00  0.00    -0.005 C 
HETATM   21  C   UNL     1      27.356 -13.707 -16.280  1.00  0.00     0.005 C 
ENDBRANCH  19  20
ENDBRANCH  18  19
ENDBRANCH  17  18
ENDBRANCH  16  17
ENDBRANCH  15  16
ENDBRANCH  14  15
ENDBRANCH  13  14
ENDBRANCH  11  12
ENDBRANCH  10  11
ENDBRANCH   9  10
ENDBRANCH   8   9
ENDBRANCH   7   8
ENDBRANCH   6   7
ENDBRANCH   5   6
ENDBRANCH   3   5
ENDBRANCH   1   3
TORSDOF 16
ENDMDL
MODEL 18
REMARK VINA RESULT:      -3.8     25.281     27.843
REMARK  16 active torsions:
REMARK  status: ('A' for Active; 'I' for Inactive)
REMARK    1  A    between atoms: O_1  and  C_20 
REMARK    2  A    between atoms: C_3  and  C_4 
REMARK    3  A    between atoms: C_3  and  C_5 
REMARK    4  A    between atoms: C_4  and  C_8 
REMARK    5  A    between atoms: C_5  and  C_11 
REMARK    6  A    between atoms: C_6  and  C_7 
REMARK    7  A    between atoms: C_6  and  C_9 
REMARK    8  A    between atoms: C_7  and  C_10 
REMARK    9  A    between atoms: C_8  and  C_12 
REMARK   10  A    between atoms: C_9  and  C_13 
REMARK   11  A    between atoms: C_10  and  C_14 
REMARK   12  A    between atoms: C_11  and  C_15 
REMARK   13  A    between atoms: C_12  and  C_16 
REMARK   14  A    between atoms: C_13  and  C_17 
REMARK   15  A    between atoms: C_14  and  C_18 
REMARK   16  A    between atoms: C_18  and  C_20 
ROOT
HETATM    1  O   UNL     1      31.754 -17.904 -18.144  1.00  0.00    -0.776 OA
HETATM    2  H   UNL     1      31.785 -16.937 -18.156  1.00  0.00     0.167 HD
ENDROOT
BRANCH   1   3
HETATM    3  C   UNL     1      30.617 -18.569 -17.851  1.00  0.00     0.139 C 
HETATM    4  O   UNL     1      29.554 -18.193 -18.326  1.00  0.00    -0.650 OA
BRANCH   3   5
HETATM    5  C   UNL     1      30.684 -19.767 -16.941  1.00  0.00     0.110 C 
BRANCH   5   6
HETATM    6  C   UNL     1      30.828 -19.392 -15.460  1.00  0.00     0.010 C 
BRANCH   6   7
HETATM    7  C   UNL     1      30.564 -20.603 -14.557  1.00  0.00     0.001 C 
BRANCH   7   8
HETATM    8  C   UNL     1      30.631 -20.208 -13.078  1.00  0.00     0.000 C 
BRANCH   8   9
HETATM    9  C   UNL     1      30.556 -18.686 -12.909  1.00  0.00     0.000 C 
BRANCH   9  10
HETATM   10  C   UNL     1      30.516 -18.305 -11.426  1.00  0.00     0.004 C 
BRANCH  10  11
HETATM   11  C   UNL     1      30.022 -16.870 -11.231  1.00  0.00     0.027 C 
BRANCH  11  12
HETATM   12  C   UNL     1      31.117 -15.905 -11.618  1.00  0.00    -0.031 C 
HETATM   13  C   UNL     1      30.982 -14.584 -11.852  1.00  0.00    -0.031 C 
BRANCH  13  14
HETATM   14  C   UNL     1      29.705 -13.772 -11.790  1.00  0.00     0.027 C 
BRANCH  14  15
HETATM   15  C   UNL     1      29.796 -12.523 -12.685  1.00  0.00     0.004 C 
BRANCH  15  16
HETATM   16  C   UNL     1      29.165 -12.693 -14.082  1.00  0.00     0.000 C 
BRANCH  16  17
HETATM   17  C   UNL     1      28.199 -13.886 -14.169  1.00  0.00     0.000 C 
BRANCH  17  18
HETATM   18  C   UNL     1      28.533 -14.782 -15.369  1.00  0.00     0.000 C 
BRANCH  18  19
HETATM   19  C   UNL     1      29.445 -15.942 -14.951  1.00  0.00    -0.000 C 
BRANCH  19  20
HETATM   20  C   UNL     1      30.884 -15.711 -15.428  1.00  0.00    -0.005 C 
HETATM   21  C   UNL     1      30.920 -14.802 -16.652  1.00  0.00     0.005 C 
ENDBRANCH  19  20
ENDBRANCH  18  19
ENDBRANCH  17  18
ENDBRANCH  16  17
ENDBRANCH  15  16
ENDBRANCH  14  15
ENDBRANCH  13  14
ENDBRANCH  11  12
ENDBRANCH  10  11
ENDBRANCH   9  10
ENDBRANCH   8   9
ENDBRANCH   7   8
ENDBRANCH   6   7
ENDBRANCH   5   6
ENDBRANCH   3   5
ENDBRANCH   1   3
TORSDOF 16
ENDMDL
MODEL 19
REMARK VINA RESULT:      -3.8      3.078      5.053
REMARK  16 active torsions:
REMARK  status: ('A' for Active; 'I' for Inactive)
REMARK    1  A    between atoms: O_1  and  C_20 
REMARK    2  A    between atoms: C_3  and  C_4 
REMARK    3  A    between atoms: C_3  and  C_5 
REMARK    4  A    between atoms: C_4  and  C_8 
REMARK    5  A    between atoms: C_5  and  C_11 
REMARK    6  A    between atoms: C_6  and  C_7 
REMARK    7  A    between atoms: C_6  and  C_9 
REMARK    8  A    between atoms: C_7  and  C_10 
REMARK    9  A    between atoms: C_8  and  C_12 
REMARK   10  A    between atoms: C_9  and  C_13 
REMARK   11  A    between atoms: C_10  and  C_14 
REMARK   12  A    between atoms: C_11  and  C_15 
REMARK   13  A    between atoms: C_12  and  C_16 
REMARK   14  A    between atoms: C_13  and  C_17 
REMARK   15  A    between atoms: C_14  and  C_18 
REMARK   16  A    between atoms: C_18  and  C_20 
ROOT
HETATM    1  O   UNL     1      38.681   8.884 -16.209  1.00  0.00    -0.776 OA
HETATM    2  H   UNL     1      38.044   9.247 -15.577  1.00  0.00     0.167 HD
ENDROOT
BRANCH   1   3
HETATM    3  C   UNL     1      39.333   7.727 -15.967  1.00  0.00     0.139 C 
HETATM    4  O   UNL     1      39.449   6.898 -16.860  1.00  0.00    -0.650 OA
BRANCH   3   5
HETATM    5  C   UNL     1      39.906   7.483 -14.596  1.00  0.00     0.110 C 
BRANCH   5   6
HETATM    6  C   UNL     1      41.077   8.416 -14.257  1.00  0.00     0.010 C 
BRANCH   6   7
HETATM    7  C   UNL     1      40.833   9.146 -12.931  1.00  0.00     0.001 C 
BRANCH   7   8
HETATM    8  C   UNL     1      41.106  10.647 -13.074  1.00  0.00     0.000 C 
BRANCH   8   9
HETATM    9  C   UNL     1      39.881  11.472 -12.663  1.00  0.00     0.000 C 
BRANCH   9  10
HETATM   10  C   UNL     1      38.587  10.705 -12.952  1.00  0.00     0.004 C 
BRANCH  10  11
HETATM   11  C   UNL     1      37.410  11.275 -12.156  1.00  0.00     0.027 C 
BRANCH  11  12
HETATM   12  C   UNL     1      37.667  11.091 -10.679  1.00  0.00    -0.031 C 
HETATM   13  C   UNL     1      37.600   9.936  -9.986  1.00  0.00    -0.031 C 
BRANCH  13  14
HETATM   14  C   UNL     1      37.245   8.567 -10.527  1.00  0.00     0.027 C 
BRANCH  14  15
HETATM   15  C   UNL     1      38.500   7.692 -10.693  1.00  0.00     0.004 C 
BRANCH  15  16
HETATM   16  C   UNL     1      39.276   7.437  -9.384  1.00  0.00     0.000 C 
BRANCH  16  17
HETATM   17  C   UNL     1      40.767   7.799  -9.483  1.00  0.00     0.000 C 
BRANCH  17  18
HETATM   18  C   UNL     1      41.015   9.247  -9.039  1.00  0.00     0.000 C 
BRANCH  18  19
HETATM   19  C   UNL     1      40.537   9.469  -7.599  1.00  0.00    -0.000 C 
BRANCH  19  20
HETATM   20  C   UNL     1      41.222  10.690  -6.972  1.00  0.00    -0.005 C 
HETATM   21  C   UNL     1      42.311  11.241  -7.887  1.00  0.00     0.005 C 
ENDBRANCH  19  20
ENDBRANCH  18  19
ENDBRANCH  17  18
ENDBRANCH  16  17
ENDBRANCH  15  16
ENDBRANCH  14  15
ENDBRANCH  13  14
ENDBRANCH  11  12
ENDBRANCH  10  11
ENDBRANCH   9  10
ENDBRANCH   8   9
ENDBRANCH   7   8
ENDBRANCH   6   7
ENDBRANCH   5   6
ENDBRANCH   3   5
ENDBRANCH   1   3
TORSDOF 16
ENDMDL
MODEL 20
REMARK VINA RESULT:      -3.8      3.371      6.360
REMARK  16 active torsions:
REMARK  status: ('A' for Active; 'I' for Inactive)
REMARK    1  A    between atoms: O_1  and  C_20 
REMARK    2  A    between atoms: C_3  and  C_4 
REMARK    3  A    between atoms: C_3  and  C_5 
REMARK    4  A    between atoms: C_4  and  C_8 
REMARK    5  A    between atoms: C_5  and  C_11 
REMARK    6  A    between atoms: C_6  and  C_7 
REMARK    7  A    between atoms: C_6  and  C_9 
REMARK    8  A    between atoms: C_7  and  C_10 
REMARK    9  A    between atoms: C_8  and  C_12 
REMARK   10  A    between atoms: C_9  and  C_13 
REMARK   11  A    between atoms: C_10  and  C_14 
REMARK   12  A    between atoms: C_11  and  C_15 
REMARK   13  A    between atoms: C_12  and  C_16 
REMARK   14  A    between atoms: C_13  and  C_17 
REMARK   15  A    between atoms: C_14  and  C_18 
REMARK   16  A    between atoms: C_18  and  C_20 
ROOT
HETATM    1  O   UNL     1      42.518  11.540 -11.813  1.00  0.00    -0.776 OA
HETATM    2  H   UNL     1      43.126  11.205 -11.137  1.00  0.00     0.167 HD
ENDROOT
BRANCH   1   3
HETATM    3  C   UNL     1      42.239  10.828 -12.925  1.00  0.00     0.139 C 
HETATM    4  O   UNL     1      42.990  10.890 -13.890  1.00  0.00    -0.650 OA
BRANCH   3   5
HETATM    5  C   UNL     1      41.003   9.968 -12.952  1.00  0.00     0.110 C 
BRANCH   5   6
HETATM    6  C   UNL     1      41.131   8.757 -13.885  1.00  0.00     0.010 C 
BRANCH   6   7
HETATM    7  C   UNL     1      39.829   7.946 -13.915  1.00  0.00     0.001 C 
BRANCH   7   8
HETATM    8  C   UNL     1      39.544   7.421 -15.326  1.00  0.00     0.000 C 
BRANCH   8   9
HETATM    9  C   UNL     1      38.204   7.950 -15.851  1.00  0.00     0.000 C 
BRANCH   9  10
HETATM   10  C   UNL     1      37.869   9.304 -15.218  1.00  0.00     0.004 C 
BRANCH  10  11
HETATM   11  C   UNL     1      38.037  10.447 -16.223  1.00  0.00     0.027 C 
BRANCH  11  12
HETATM   12  C   UNL     1      36.716  10.713 -16.905  1.00  0.00    -0.031 C 
HETATM   13  C   UNL     1      36.526  11.009 -18.206  1.00  0.00    -0.031 C 
BRANCH  13  14
HETATM   14  C   UNL     1      37.589  11.149 -19.275  1.00  0.00     0.027 C 
BRANCH  14  15
HETATM   15  C   UNL     1      37.496  10.009 -20.305  1.00  0.00     0.004 C 
BRANCH  15  16
HETATM   16  C   UNL     1      37.648   8.596 -19.705  1.00  0.00     0.000 C 
BRANCH  16  17
HETATM   17  C   UNL     1      38.915   7.868 -20.183  1.00  0.00     0.000 C 
BRANCH  17  18
HETATM   18  C   UNL     1      39.875   7.604 -19.015  1.00  0.00     0.000 C 
BRANCH  18  19
HETATM   19  C   UNL     1      41.179   8.392 -19.187  1.00  0.00    -0.000 C 
BRANCH  19  20
HETATM   20  C   UNL     1      40.990   9.863 -18.798  1.00  0.00    -0.005 C 
HETATM   21  C   UNL     1      41.325  10.092 -17.328  1.00  0.00     0.005 C 
ENDBRANCH  19  20
ENDBRANCH  18  19
ENDBRANCH  17  18
ENDBRANCH  16  17
ENDBRANCH  15  16
ENDBRANCH  14  15
ENDBRANCH  13  14
ENDBRANCH  11  12
ENDBRANCH  10  11
ENDBRANCH   9  10
ENDBRANCH   8   9
ENDBRANCH   7   8
ENDBRANCH   6   7
ENDBRANCH   5   6
ENDBRANCH   3   5
ENDBRANCH   1   3
TORSDOF 16
ENDMDL
