MODEL 1
REMARK VINA RESULT:      -8.1      0.000      0.000
REMARK  2 active torsions:
REMARK  status: ('A' for Active; 'I' for Inactive)
REMARK    1  A    between atoms: N_3  and  C_15 
REMARK    2  A    between atoms: C_5  and  C_7 
ROOT
HETATM    1  S   UNL     1      31.087 -20.506 -10.597  1.00  0.00    -0.069 SA
HETATM    2  N   UNL     1      30.336 -18.087 -10.656  1.00  0.00    -0.344 N 
HETATM    3  C   UNL     1      30.411 -18.527 -11.954  1.00  0.00     0.052 A 
HETATM    4  C   UNL     1      30.658 -19.087  -9.767  1.00  0.00     0.087 A 
HETATM    5  C   UNL     1      30.812 -19.845 -12.103  1.00  0.00     0.034 A 
HETATM    6  C   UNL     1      30.136 -17.761 -13.100  1.00  0.00     0.031 A 
HETATM    7  C   UNL     1      30.951 -20.454 -13.347  1.00  0.00     0.028 A 
HETATM    8  C   UNL     1      30.012 -16.687 -10.344  1.00  0.00     0.157 C 
HETATM    9  C   UNL     1      30.672 -19.696 -14.499  1.00  0.00    -0.061 A 
HETATM   10  C   UNL     1      30.266 -18.351 -14.367  1.00  0.00     0.009 A 
HETATM   11  C   UNL     1      30.804 -20.301 -15.864  1.00  0.00     0.048 C 
ENDROOT
BRANCH   4  12
HETATM   12  C   UNL     1      30.630 -19.044  -8.269  1.00  0.00    -0.002 A 
HETATM   13  C   UNL     1      30.286 -17.891  -7.542  1.00  0.00     0.016 A 
HETATM   14  C   UNL     1      30.252 -17.901  -6.144  1.00  0.00     0.030 A 
HETATM   15  C   UNL     1      30.550 -19.071  -5.414  1.00  0.00     0.029 A 
HETATM   16  C   UNL     1      30.873 -20.232  -6.147  1.00  0.00     0.030 A 
HETATM   17  C   UNL     1      30.902 -20.219  -7.544  1.00  0.00     0.016 A 
BRANCH  15  18
HETATM   18  N   UNL     1      30.516 -19.083  -3.970  1.00  0.00    -0.390 N 
HETATM   19  C   UNL     1      30.790 -20.308  -3.232  1.00  0.00     0.149 C 
HETATM   20  C   UNL     1      30.206 -17.871  -3.225  1.00  0.00     0.149 C 
ENDBRANCH  15  18
ENDBRANCH   4  12
TORSDOF 2
ENDMDL
MODEL 2
REMARK VINA RESULT:      -8.0      2.402      4.568
REMARK  2 active torsions:
REMARK  status: ('A' for Active; 'I' for Inactive)
REMARK    1  A    between atoms: N_3  and  C_15 
REMARK    2  A    between atoms: C_5  and  C_7 
ROOT
HETATM    1  S   UNL     1      31.030 -20.563 -15.092  1.00  0.00    -0.069 SA
HETATM    2  N   UNL     1      30.346 -18.123 -15.058  1.00  0.00    -0.344 N 
HETATM    3  C   UNL     1      30.407 -18.516 -16.371  1.00  0.00     0.052 A 
HETATM    4  C   UNL     1      30.642 -19.164 -14.207  1.00  0.00     0.087 A 
HETATM    5  C   UNL     1      30.770 -19.839 -16.571  1.00  0.00     0.034 A 
HETATM    6  C   UNL     1      30.152 -17.700 -17.487  1.00  0.00     0.031 A 
HETATM    7  C   UNL     1      30.890 -20.405 -17.837  1.00  0.00     0.028 A 
HETATM    8  C   UNL     1      30.063 -16.728 -14.693  1.00  0.00     0.157 C 
HETATM    9  C   UNL     1      30.630 -19.596 -18.959  1.00  0.00    -0.061 A 
HETATM   10  C   UNL     1      30.263 -18.246 -18.776  1.00  0.00     0.009 A 
HETATM   11  C   UNL     1      30.743 -20.153 -20.347  1.00  0.00     0.048 C 
ENDROOT
BRANCH   4  12
HETATM   12  C   UNL     1      30.618 -19.177 -12.709  1.00  0.00    -0.002 A 
HETATM   13  C   UNL     1      30.927 -20.319 -11.949  1.00  0.00     0.016 A 
HETATM   14  C   UNL     1      30.915 -20.281 -10.551  1.00  0.00     0.030 A 
HETATM   15  C   UNL     1      30.601 -19.095  -9.854  1.00  0.00     0.029 A 
HETATM   16  C   UNL     1      30.313 -17.946 -10.621  1.00  0.00     0.030 A 
HETATM   17  C   UNL     1      30.331 -17.987 -12.017  1.00  0.00     0.016 A 
BRANCH  15  18
HETATM   18  N   UNL     1      30.587 -19.054  -8.410  1.00  0.00    -0.390 N 
HETATM   19  C   UNL     1      30.897 -20.246  -7.632  1.00  0.00     0.149 C 
HETATM   20  C   UNL     1      30.261 -17.822  -7.706  1.00  0.00     0.149 C 
ENDBRANCH  15  18
ENDBRANCH   4  12
TORSDOF 2
ENDMDL
MODEL 3
REMARK VINA RESULT:      -8.0      1.496      7.700
REMARK  2 active torsions:
REMARK  status: ('A' for Active; 'I' for Inactive)
REMARK    1  A    between atoms: N_3  and  C_15 
REMARK    2  A    between atoms: C_5  and  C_7 
ROOT
HETATM    1  S   UNL     1      30.819 -20.493  -9.275  1.00  0.00    -0.069 SA
HETATM    2  N   UNL     1      30.267 -18.020  -9.237  1.00  0.00    -0.344 N 
HETATM    3  C   UNL     1      30.422 -18.429  -7.936  1.00  0.00     0.052 A 
HETATM    4  C   UNL     1      30.485 -19.055 -10.118  1.00  0.00     0.087 A 
HETATM    5  C   UNL     1      30.730 -19.770  -7.775  1.00  0.00     0.034 A 
HETATM    6  C   UNL     1      30.279 -17.618  -6.796  1.00  0.00     0.031 A 
HETATM    7  C   UNL     1      30.913 -20.357  -6.526  1.00  0.00     0.028 A 
HETATM    8  C   UNL     1      29.851 -16.648  -9.560  1.00  0.00     0.157 C 
HETATM    9  C   UNL     1      30.778 -19.551  -5.381  1.00  0.00    -0.061 A 
HETATM   10  C   UNL     1      30.461 -18.183  -5.524  1.00  0.00     0.009 A 
HETATM   11  C   UNL     1      30.966 -20.130  -4.011  1.00  0.00     0.048 C 
ENDROOT
BRANCH   4  12
HETATM   12  C   UNL     1      30.487 -19.018 -11.616  1.00  0.00    -0.002 A 
HETATM   13  C   UNL     1      30.220 -17.850 -12.352  1.00  0.00     0.016 A 
HETATM   14  C   UNL     1      30.255 -17.854 -13.750  1.00  0.00     0.030 A 
HETATM   15  C   UNL     1      30.567 -19.026 -14.471  1.00  0.00     0.029 A 
HETATM   16  C   UNL     1      30.856 -20.190 -13.728  1.00  0.00     0.030 A 
HETATM   17  C   UNL     1      30.825 -20.180 -12.331  1.00  0.00     0.016 A 
BRANCH  15  18
HETATM   18  N   UNL     1      30.602 -19.032 -15.915  1.00  0.00    -0.390 N 
HETATM   19  C   UNL     1      30.928 -20.250 -16.644  1.00  0.00     0.149 C 
HETATM   20  C   UNL     1      30.313 -17.820 -16.669  1.00  0.00     0.149 C 
ENDBRANCH  15  18
ENDBRANCH   4  12
TORSDOF 2
ENDMDL
MODEL 4
REMARK VINA RESULT:      -8.0      1.710      7.905
REMARK  2 active torsions:
REMARK  status: ('A' for Active; 'I' for Inactive)
REMARK    1  A    between atoms: N_3  and  C_15 
REMARK    2  A    between atoms: C_5  and  C_7 
ROOT
HETATM    1  S   UNL     1      30.839 -20.464 -10.125  1.00  0.00    -0.069 SA
HETATM    2  N   UNL     1      30.252 -17.999 -10.084  1.00  0.00    -0.344 N 
HETATM    3  C   UNL     1      30.413 -18.407  -8.784  1.00  0.00     0.052 A 
HETATM    4  C   UNL     1      30.484 -19.031 -10.966  1.00  0.00     0.087 A 
HETATM    5  C   UNL     1      30.740 -19.744  -8.624  1.00  0.00     0.034 A 
HETATM    6  C   UNL     1      30.260 -17.599  -7.643  1.00  0.00     0.031 A 
HETATM    7  C   UNL     1      30.932 -20.330  -7.376  1.00  0.00     0.028 A 
HETATM    8  C   UNL     1      29.817 -16.633 -10.406  1.00  0.00     0.157 C 
HETATM    9  C   UNL     1      30.787 -19.526  -6.230  1.00  0.00    -0.061 A 
HETATM   10  C   UNL     1      30.450 -18.163  -6.372  1.00  0.00     0.009 A 
HETATM   11  C   UNL     1      30.983 -20.104  -4.861  1.00  0.00     0.048 C 
ENDROOT
BRANCH   4  12
HETATM   12  C   UNL     1      30.485 -18.991 -12.464  1.00  0.00    -0.002 A 
HETATM   13  C   UNL     1      30.494 -17.792 -13.199  1.00  0.00     0.016 A 
HETATM   14  C   UNL     1      30.517 -17.802 -14.596  1.00  0.00     0.030 A 
HETATM   15  C   UNL     1      30.542 -19.012 -15.320  1.00  0.00     0.029 A 
HETATM   16  C   UNL     1      30.555 -20.213 -14.579  1.00  0.00     0.030 A 
HETATM   17  C   UNL     1      30.537 -20.200 -13.182  1.00  0.00     0.016 A 
BRANCH  15  18
HETATM   18  N   UNL     1      30.565 -19.023 -16.764  1.00  0.00    -0.390 N 
HETATM   19  C   UNL     1      30.263 -17.815 -17.520  1.00  0.00     0.149 C 
HETATM   20  C   UNL     1      30.888 -20.243 -17.492  1.00  0.00     0.149 C 
ENDBRANCH  15  18
ENDBRANCH   4  12
TORSDOF 2
ENDMDL
MODEL 5
REMARK VINA RESULT:      -7.9      1.732      7.960
REMARK  2 active torsions:
REMARK  status: ('A' for Active; 'I' for Inactive)
REMARK    1  A    between atoms: N_3  and  C_15 
REMARK    2  A    between atoms: C_5  and  C_7 
ROOT
HETATM    1  S   UNL     1      30.840 -20.528 -10.157  1.00  0.00    -0.069 SA
HETATM    2  N   UNL     1      30.319 -18.048 -10.200  1.00  0.00    -0.344 N 
HETATM    3  C   UNL     1      30.445 -18.421  -8.885  1.00  0.00     0.052 A 
HETATM    4  C   UNL     1      30.539 -19.111 -11.047  1.00  0.00     0.087 A 
HETATM    5  C   UNL     1      30.734 -19.761  -8.681  1.00  0.00     0.034 A 
HETATM    6  C   UNL     1      30.293 -17.576  -7.772  1.00  0.00     0.031 A 
HETATM    7  C   UNL     1      30.887 -20.314  -7.412  1.00  0.00     0.028 A 
HETATM    8  C   UNL     1      29.926 -16.681 -10.569  1.00  0.00     0.157 C 
HETATM    9  C   UNL     1      30.742 -19.473  -6.293  1.00  0.00    -0.061 A 
HETATM   10  C   UNL     1      30.444 -18.107  -6.481  1.00  0.00     0.009 A 
HETATM   11  C   UNL     1      30.898 -20.015  -4.904  1.00  0.00     0.048 C 
ENDROOT
BRANCH   4  12
HETATM   12  C   UNL     1      30.568 -19.116 -12.545  1.00  0.00    -0.002 A 
HETATM   13  C   UNL     1      30.898 -20.256 -13.300  1.00  0.00     0.016 A 
HETATM   14  C   UNL     1      30.891 -20.222 -14.698  1.00  0.00     0.030 A 
HETATM   15  C   UNL     1      30.544 -19.050 -15.400  1.00  0.00     0.029 A 
HETATM   16  C   UNL     1      30.191 -17.915 -14.639  1.00  0.00     0.030 A 
HETATM   17  C   UNL     1      30.195 -17.953 -13.242  1.00  0.00     0.016 A 
BRANCH  15  18
HETATM   18  N   UNL     1      30.537 -19.014 -16.844  1.00  0.00    -0.390 N 
HETATM   19  C   UNL     1      30.826 -20.214 -17.617  1.00  0.00     0.149 C 
HETATM   20  C   UNL     1      30.242 -17.777 -17.555  1.00  0.00     0.149 C 
ENDBRANCH  15  18
ENDBRANCH   4  12
TORSDOF 2
ENDMDL
MODEL 6
REMARK VINA RESULT:      -7.8      1.426      2.434
REMARK  2 active torsions:
REMARK  status: ('A' for Active; 'I' for Inactive)
REMARK    1  A    between atoms: N_3  and  C_15 
REMARK    2  A    between atoms: C_5  and  C_7 
ROOT
HETATM    1  S   UNL     1      30.960 -20.274 -12.981  1.00  0.00    -0.069 SA
HETATM    2  N   UNL     1      30.403 -17.806 -12.846  1.00  0.00    -0.344 N 
HETATM    3  C   UNL     1      30.425 -18.151 -14.174  1.00  0.00     0.052 A 
HETATM    4  C   UNL     1      30.656 -18.892 -12.039  1.00  0.00     0.087 A 
HETATM    5  C   UNL     1      30.717 -19.482 -14.428  1.00  0.00     0.034 A 
HETATM    6  C   UNL     1      30.197 -17.282 -15.254  1.00  0.00     0.031 A 
HETATM    7  C   UNL     1      30.790 -20.004 -15.717  1.00  0.00     0.028 A 
HETATM    8  C   UNL     1      30.197 -16.413 -12.425  1.00  0.00     0.157 C 
HETATM    9  C   UNL     1      30.557 -19.141 -16.803  1.00  0.00    -0.061 A 
HETATM   10  C   UNL     1      30.262 -17.782 -16.564  1.00  0.00     0.009 A 
HETATM   11  C   UNL     1      30.622 -19.650 -18.212  1.00  0.00     0.048 C 
ENDROOT
BRANCH   4  12
HETATM   12  C   UNL     1      30.653 -18.961 -10.543  1.00  0.00    -0.002 A 
HETATM   13  C   UNL     1      30.077 -17.967  -9.732  1.00  0.00     0.016 A 
HETATM   14  C   UNL     1      30.076 -18.082  -8.338  1.00  0.00     0.030 A 
HETATM   15  C   UNL     1      30.643 -19.203  -7.696  1.00  0.00     0.029 A 
HETATM   16  C   UNL     1      31.200 -20.209  -8.514  1.00  0.00     0.030 A 
HETATM   17  C   UNL     1      31.195 -20.092  -9.906  1.00  0.00     0.016 A 
BRANCH  15  18
HETATM   18  N   UNL     1      30.644 -19.323  -6.257  1.00  0.00    -0.390 N 
HETATM   19  C   UNL     1      30.334 -18.173  -5.417  1.00  0.00     0.149 C 
HETATM   20  C   UNL     1      30.955 -20.594  -5.618  1.00  0.00     0.149 C 
ENDBRANCH  15  18
ENDBRANCH   4  12
TORSDOF 2
ENDMDL
MODEL 7
REMARK VINA RESULT:      -7.8      3.462      9.564
REMARK  2 active torsions:
REMARK  status: ('A' for Active; 'I' for Inactive)
REMARK    1  A    between atoms: N_3  and  C_15 
REMARK    2  A    between atoms: C_5  and  C_7 
ROOT
HETATM    1  S   UNL     1      30.850 -20.530 -13.971  1.00  0.00    -0.069 SA
HETATM    2  N   UNL     1      30.271 -18.063 -13.936  1.00  0.00    -0.344 N 
HETATM    3  C   UNL     1      30.428 -18.468 -12.635  1.00  0.00     0.052 A 
HETATM    4  C   UNL     1      30.502 -19.097 -14.816  1.00  0.00     0.087 A 
HETATM    5  C   UNL     1      30.751 -19.806 -12.472  1.00  0.00     0.034 A 
HETATM    6  C   UNL     1      30.276 -17.657 -11.496  1.00  0.00     0.031 A 
HETATM    7  C   UNL     1      30.939 -20.389 -11.222  1.00  0.00     0.028 A 
HETATM    8  C   UNL     1      29.840 -16.696 -14.262  1.00  0.00     0.157 C 
HETATM    9  C   UNL     1      30.794 -19.583 -10.078  1.00  0.00    -0.061 A 
HETATM   10  C   UNL     1      30.462 -18.219 -10.223  1.00  0.00     0.009 A 
HETATM   11  C   UNL     1      30.986 -20.158  -8.707  1.00  0.00     0.048 C 
ENDROOT
BRANCH   4  12
HETATM   12  C   UNL     1      30.505 -19.061 -16.313  1.00  0.00    -0.002 A 
HETATM   13  C   UNL     1      30.167 -17.913 -17.053  1.00  0.00     0.016 A 
HETATM   14  C   UNL     1      30.206 -17.917 -18.450  1.00  0.00     0.030 A 
HETATM   15  C   UNL     1      30.593 -19.068 -19.169  1.00  0.00     0.029 A 
HETATM   16  C   UNL     1      30.953 -20.210 -18.423  1.00  0.00     0.030 A 
HETATM   17  C   UNL     1      30.918 -20.201 -17.026  1.00  0.00     0.016 A 
BRANCH  15  18
HETATM   18  N   UNL     1      30.632 -19.073 -20.612  1.00  0.00    -0.390 N 
HETATM   19  C   UNL     1      30.926 -20.299 -21.342  1.00  0.00     0.149 C 
HETATM   20  C   UNL     1      30.379 -17.853 -21.366  1.00  0.00     0.149 C 
ENDBRANCH  15  18
ENDBRANCH   4  12
TORSDOF 2
ENDMDL
MODEL 8
REMARK VINA RESULT:      -7.5      1.761      8.163
REMARK  2 active torsions:
REMARK  status: ('A' for Active; 'I' for Inactive)
REMARK    1  A    between atoms: N_3  and  C_15 
REMARK    2  A    between atoms: C_5  and  C_7 
ROOT
HETATM    1  S   UNL     1      30.805 -20.473  -5.279  1.00  0.00    -0.069 SA
HETATM    2  N   UNL     1      30.262 -17.999  -5.248  1.00  0.00    -0.344 N 
HETATM    3  C   UNL     1      30.419 -18.403  -3.946  1.00  0.00     0.052 A 
HETATM    4  C   UNL     1      30.473 -19.038  -6.126  1.00  0.00     0.087 A 
HETATM    5  C   UNL     1      30.724 -19.745  -3.781  1.00  0.00     0.034 A 
HETATM    6  C   UNL     1      30.283 -17.587  -2.809  1.00  0.00     0.031 A 
HETATM    7  C   UNL     1      30.909 -20.328  -2.531  1.00  0.00     0.028 A 
HETATM    8  C   UNL     1      29.849 -16.627  -5.575  1.00  0.00     0.157 C 
HETATM    9  C   UNL     1      30.781 -19.517  -1.388  1.00  0.00    -0.061 A 
HETATM   10  C   UNL     1      30.467 -18.149  -1.536  1.00  0.00     0.009 A 
HETATM   11  C   UNL     1      30.971 -20.091  -0.017  1.00  0.00     0.048 C 
ENDROOT
BRANCH   4  12
HETATM   12  C   UNL     1      30.471 -19.006  -7.624  1.00  0.00    -0.002 A 
HETATM   13  C   UNL     1      30.234 -17.833  -8.364  1.00  0.00     0.016 A 
HETATM   14  C   UNL     1      30.263 -17.844  -9.762  1.00  0.00     0.030 A 
HETATM   15  C   UNL     1      30.539 -19.026 -10.480  1.00  0.00     0.029 A 
HETATM   16  C   UNL     1      30.798 -20.195  -9.733  1.00  0.00     0.030 A 
HETATM   17  C   UNL     1      30.773 -20.180  -8.336  1.00  0.00     0.016 A 
BRANCH  15  18
HETATM   18  N   UNL     1      30.568 -19.038 -11.923  1.00  0.00    -0.390 N 
HETATM   19  C   UNL     1      30.858 -20.268 -12.649  1.00  0.00     0.149 C 
HETATM   20  C   UNL     1      30.309 -17.822 -12.681  1.00  0.00     0.149 C 
ENDBRANCH  15  18
ENDBRANCH   4  12
TORSDOF 2
ENDMDL
MODEL 9
REMARK VINA RESULT:      -7.4      2.017      8.042
REMARK  2 active torsions:
REMARK  status: ('A' for Active; 'I' for Inactive)
REMARK    1  A    between atoms: N_3  and  C_15 
REMARK    2  A    between atoms: C_5  and  C_7 
ROOT
HETATM    1  S   UNL     1      30.237 -16.978  -9.451  1.00  0.00    -0.069 SA
HETATM    2  N   UNL     1      30.886 -19.387  -9.895  1.00  0.00    -0.344 N 
HETATM    3  C   UNL     1      30.746 -19.241  -8.537  1.00  0.00     0.052 A 
HETATM    4  C   UNL     1      30.607 -18.213 -10.558  1.00  0.00     0.087 A 
HETATM    5  C   UNL     1      30.389 -17.969  -8.118  1.00  0.00     0.034 A 
HETATM    6  C   UNL     1      30.946 -20.247  -7.577  1.00  0.00     0.031 A 
HETATM    7  C   UNL     1      30.213 -17.639  -6.778  1.00  0.00     0.028 A 
HETATM    8  C   UNL     1      31.347 -20.653 -10.481  1.00  0.00     0.157 C 
HETATM    9  C   UNL     1      30.405 -18.642  -5.810  1.00  0.00    -0.061 A 
HETATM   10  C   UNL     1      30.773 -19.942  -6.217  1.00  0.00     0.009 A 
HETATM   11  C   UNL     1      30.228 -18.343  -4.352  1.00  0.00     0.048 C 
ENDROOT
BRANCH   4  12
HETATM   12  C   UNL     1      30.572 -17.965 -12.035  1.00  0.00    -0.002 A 
HETATM   13  C   UNL     1      31.205 -16.866 -12.642  1.00  0.00     0.016 A 
HETATM   14  C   UNL     1      31.165 -16.684 -14.028  1.00  0.00     0.030 A 
HETATM   15  C   UNL     1      30.498 -17.601 -14.868  1.00  0.00     0.029 A 
HETATM   16  C   UNL     1      29.883 -18.715 -14.257  1.00  0.00     0.030 A 
HETATM   17  C   UNL     1      29.929 -18.895 -12.872  1.00  0.00     0.016 A 
BRANCH  15  18
HETATM   18  N   UNL     1      30.456 -17.414 -16.299  1.00  0.00    -0.390 N 
HETATM   19  C   UNL     1      30.307 -16.082 -16.869  1.00  0.00     0.149 C 
HETATM   20  C   UNL     1      30.559 -18.554 -17.200  1.00  0.00     0.149 C 
ENDBRANCH  15  18
ENDBRANCH   4  12
TORSDOF 2
ENDMDL
MODEL 10
REMARK VINA RESULT:      -7.4      2.473      8.562
REMARK  2 active torsions:
REMARK  status: ('A' for Active; 'I' for Inactive)
REMARK    1  A    between atoms: N_3  and  C_15 
REMARK    2  A    between atoms: C_5  and  C_7 
ROOT
HETATM    1  S   UNL     1      30.899 -20.483 -12.039  1.00  0.00    -0.069 SA
HETATM    2  N   UNL     1      30.315 -18.018 -11.970  1.00  0.00    -0.344 N 
HETATM    3  C   UNL     1      30.441 -18.449 -10.673  1.00  0.00     0.052 A 
HETATM    4  C   UNL     1      30.569 -19.034 -12.863  1.00  0.00     0.087 A 
HETATM    5  C   UNL     1      30.762 -19.789 -10.529  1.00  0.00     0.034 A 
HETATM    6  C   UNL     1      30.258 -17.661  -9.523  1.00  0.00     0.031 A 
HETATM    7  C   UNL     1      30.920 -20.397  -9.286  1.00  0.00     0.028 A 
HETATM    8  C   UNL     1      29.890 -16.646 -12.278  1.00  0.00     0.157 C 
HETATM    9  C   UNL     1      30.745 -19.614  -8.130  1.00  0.00    -0.061 A 
HETATM   10  C   UNL     1      30.414 -18.248  -8.257  1.00  0.00     0.009 A 
HETATM   11  C   UNL     1      30.904 -20.216  -6.767  1.00  0.00     0.048 C 
ENDROOT
BRANCH   4  12
HETATM   12  C   UNL     1      30.609 -18.968 -14.360  1.00  0.00    -0.002 A 
HETATM   13  C   UNL     1      30.477 -17.766 -15.077  1.00  0.00     0.016 A 
HETATM   14  C   UNL     1      30.543 -17.747 -16.474  1.00  0.00     0.030 A 
HETATM   15  C   UNL     1      30.754 -18.930 -17.212  1.00  0.00     0.029 A 
HETATM   16  C   UNL     1      30.909 -20.131 -16.488  1.00  0.00     0.030 A 
HETATM   17  C   UNL     1      30.847 -20.145 -15.092  1.00  0.00     0.016 A 
BRANCH  15  18
HETATM   18  N   UNL     1      30.822 -18.912 -18.655  1.00  0.00    -0.390 N 
HETATM   19  C   UNL     1      31.077 -17.669 -19.370  1.00  0.00     0.149 C 
HETATM   20  C   UNL     1      30.635 -20.136 -19.422  1.00  0.00     0.149 C 
ENDBRANCH  15  18
ENDBRANCH   4  12
TORSDOF 2
ENDMDL
MODEL 11
REMARK VINA RESULT:      -7.3      1.546      2.641
REMARK  2 active torsions:
REMARK  status: ('A' for Active; 'I' for Inactive)
REMARK    1  A    between atoms: N_3  and  C_15 
REMARK    2  A    between atoms: C_5  and  C_7 
ROOT
HETATM    1  S   UNL     1      30.951 -20.246  -8.106  1.00  0.00    -0.069 SA
HETATM    2  N   UNL     1      30.393 -17.778  -7.962  1.00  0.00    -0.344 N 
HETATM    3  C   UNL     1      30.413 -18.120  -9.291  1.00  0.00     0.052 A 
HETATM    4  C   UNL     1      30.648 -18.867  -7.159  1.00  0.00     0.087 A 
HETATM    5  C   UNL     1      30.705 -19.449  -9.550  1.00  0.00     0.034 A 
HETATM    6  C   UNL     1      30.182 -17.247 -10.368  1.00  0.00     0.031 A 
HETATM    7  C   UNL     1      30.776 -19.968 -10.840  1.00  0.00     0.028 A 
HETATM    8  C   UNL     1      30.186 -16.387  -7.536  1.00  0.00     0.157 C 
HETATM    9  C   UNL     1      30.541 -19.101 -11.924  1.00  0.00    -0.061 A 
HETATM   10  C   UNL     1      30.245 -17.743 -11.680  1.00  0.00     0.009 A 
HETATM   11  C   UNL     1      30.603 -19.606 -13.334  1.00  0.00     0.048 C 
ENDROOT
BRANCH   4  12
HETATM   12  C   UNL     1      30.647 -18.941  -5.663  1.00  0.00    -0.002 A 
HETATM   13  C   UNL     1      30.122 -17.923  -4.847  1.00  0.00     0.016 A 
HETATM   14  C   UNL     1      30.121 -18.042  -3.454  1.00  0.00     0.030 A 
HETATM   15  C   UNL     1      30.637 -19.191  -2.817  1.00  0.00     0.029 A 
HETATM   16  C   UNL     1      31.142 -20.219  -3.641  1.00  0.00     0.030 A 
HETATM   17  C   UNL     1      31.137 -20.098  -5.032  1.00  0.00     0.016 A 
BRANCH  15  18
HETATM   18  N   UNL     1      30.638 -19.315  -1.379  1.00  0.00    -0.390 N 
HETATM   19  C   UNL     1      30.935 -20.592  -0.744  1.00  0.00     0.149 C 
HETATM   20  C   UNL     1      30.340 -18.166  -0.534  1.00  0.00     0.149 C 
ENDBRANCH  15  18
ENDBRANCH   4  12
TORSDOF 2
ENDMDL
MODEL 12
REMARK VINA RESULT:      -7.3      1.740      2.669
REMARK  2 active torsions:
REMARK  status: ('A' for Active; 'I' for Inactive)
REMARK    1  A    between atoms: N_3  and  C_15 
REMARK    2  A    between atoms: C_5  and  C_7 
ROOT
HETATM    1  S   UNL     1      30.242 -16.937 -11.885  1.00  0.00    -0.069 SA
HETATM    2  N   UNL     1      30.743 -19.356 -11.319  1.00  0.00    -0.344 N 
HETATM    3  C   UNL     1      30.648 -19.263 -12.685  1.00  0.00     0.052 A 
HETATM    4  C   UNL     1      30.568 -18.130 -10.718  1.00  0.00     0.087 A 
HETATM    5  C   UNL     1      30.375 -17.993 -13.168  1.00  0.00     0.034 A 
HETATM    6  C   UNL     1      30.787 -20.326 -13.594  1.00  0.00     0.031 A 
HETATM    7  C   UNL     1      30.237 -17.717 -14.526  1.00  0.00     0.028 A 
HETATM    8  C   UNL     1      30.939 -20.653 -10.656  1.00  0.00     0.157 C 
HETATM    9  C   UNL     1      30.380 -18.775 -15.442  1.00  0.00    -0.061 A 
HETATM   10  C   UNL     1      30.655 -20.076 -14.969  1.00  0.00     0.009 A 
HETATM   11  C   UNL     1      30.243 -18.535 -16.915  1.00  0.00     0.048 C 
ENDROOT
BRANCH   4  12
HETATM   12  C   UNL     1      30.665 -17.784  -9.264  1.00  0.00    -0.002 A 
HETATM   13  C   UNL     1      30.044 -18.541  -8.253  1.00  0.00     0.016 A 
HETATM   14  C   UNL     1      30.180 -18.195  -6.906  1.00  0.00     0.030 A 
HETATM   15  C   UNL     1      30.950 -17.081  -6.509  1.00  0.00     0.029 A 
HETATM   16  C   UNL     1      31.590 -16.338  -7.524  1.00  0.00     0.030 A 
HETATM   17  C   UNL     1      31.456 -16.690  -8.870  1.00  0.00     0.016 A 
BRANCH  15  18
HETATM   18  N   UNL     1      31.090 -16.723  -5.118  1.00  0.00    -0.390 N 
HETATM   19  C   UNL     1      32.136 -15.803  -4.690  1.00  0.00     0.149 C 
HETATM   20  C   UNL     1      30.189 -17.274  -4.115  1.00  0.00     0.149 C 
ENDBRANCH  15  18
ENDBRANCH   4  12
TORSDOF 2
ENDMDL
MODEL 13
REMARK VINA RESULT:      -7.3      3.600      6.459
REMARK  2 active torsions:
REMARK  status: ('A' for Active; 'I' for Inactive)
REMARK    1  A    between atoms: N_3  and  C_15 
REMARK    2  A    between atoms: C_5  and  C_7 
ROOT
HETATM    1  S   UNL     1      30.922 -20.277 -17.116  1.00  0.00    -0.069 SA
HETATM    2  N   UNL     1      30.337 -17.812 -17.063  1.00  0.00    -0.344 N 
HETATM    3  C   UNL     1      30.386 -18.196 -18.379  1.00  0.00     0.052 A 
HETATM    4  C   UNL     1      30.587 -18.872 -16.220  1.00  0.00     0.087 A 
HETATM    5  C   UNL     1      30.697 -19.530 -18.590  1.00  0.00     0.034 A 
HETATM    6  C   UNL     1      30.168 -17.361 -19.489  1.00  0.00     0.031 A 
HETATM    7  C   UNL     1      30.798 -20.089 -19.861  1.00  0.00     0.028 A 
HETATM    8  C   UNL     1      30.108 -16.410 -16.686  1.00  0.00     0.157 C 
HETATM    9  C   UNL     1      30.575 -19.261 -20.976  1.00  0.00    -0.061 A 
HETATM   10  C   UNL     1      30.261 -17.899 -20.782  1.00  0.00     0.009 A 
HETATM   11  C   UNL     1      30.670 -19.810 -22.368  1.00  0.00     0.048 C 
ENDROOT
BRANCH   4  12
HETATM   12  C   UNL     1      30.558 -18.897 -14.723  1.00  0.00    -0.002 A 
HETATM   13  C   UNL     1      30.247 -17.768 -13.944  1.00  0.00     0.016 A 
HETATM   14  C   UNL     1      30.209 -17.841 -12.548  1.00  0.00     0.030 A 
HETATM   15  C   UNL     1      30.472 -19.051 -11.871  1.00  0.00     0.029 A 
HETATM   16  C   UNL     1      30.762 -20.186 -12.657  1.00  0.00     0.030 A 
HETATM   17  C   UNL     1      30.794 -20.110 -14.052  1.00  0.00     0.016 A 
BRANCH  15  18
HETATM   18  N   UNL     1      30.435 -19.128 -10.430  1.00  0.00    -0.390 N 
HETATM   19  C   UNL     1      30.658 -20.396  -9.749  1.00  0.00     0.149 C 
HETATM   20  C   UNL     1      30.171 -17.940  -9.630  1.00  0.00     0.149 C 
ENDBRANCH  15  18
ENDBRANCH   4  12
TORSDOF 2
ENDMDL
MODEL 14
REMARK VINA RESULT:      -7.3     28.136     30.005
REMARK  2 active torsions:
REMARK  status: ('A' for Active; 'I' for Inactive)
REMARK    1  A    between atoms: N_3  and  C_15 
REMARK    2  A    between atoms: C_5  and  C_7 
ROOT
HETATM    1  S   UNL     1      38.828   7.150 -10.400  1.00  0.00    -0.069 SA
HETATM    2  N   UNL     1      40.138   9.314 -10.566  1.00  0.00    -0.344 N 
HETATM    3  C   UNL     1      40.109   8.949  -9.243  1.00  0.00     0.052 A 
HETATM    4  C   UNL     1      39.486   8.393 -11.355  1.00  0.00     0.087 A 
HETATM    5  C   UNL     1      39.425   7.774  -8.973  1.00  0.00     0.034 A 
HETATM    6  C   UNL     1      40.689   9.663  -8.180  1.00  0.00     0.031 A 
HETATM    7  C   UNL     1      39.289   7.259  -7.687  1.00  0.00     0.028 A 
HETATM    8  C   UNL     1      40.747  10.580 -10.993  1.00  0.00     0.157 C 
HETATM    9  C   UNL     1      39.872   7.965  -6.618  1.00  0.00    -0.061 A 
HETATM   10  C   UNL     1      40.569   9.165  -6.872  1.00  0.00     0.009 A 
HETATM   11  C   UNL     1      39.758   7.457  -5.213  1.00  0.00     0.048 C 
ENDROOT
BRANCH   4  12
HETATM   12  C   UNL     1      39.350   8.377 -12.847  1.00  0.00    -0.002 A 
HETATM   13  C   UNL     1      40.294   7.772 -13.695  1.00  0.00     0.016 A 
HETATM   14  C   UNL     1      40.116   7.761 -15.082  1.00  0.00     0.030 A 
HETATM   15  C   UNL     1      38.980   8.347 -15.679  1.00  0.00     0.029 A 
HETATM   16  C   UNL     1      38.024   8.932 -14.823  1.00  0.00     0.030 A 
HETATM   17  C   UNL     1      38.203   8.938 -13.437  1.00  0.00     0.016 A 
BRANCH  15  18
HETATM   18  N   UNL     1      38.796   8.337 -17.112  1.00  0.00    -0.390 N 
HETATM   19  C   UNL     1      39.416   7.304 -17.932  1.00  0.00     0.149 C 
HETATM   20  C   UNL     1      37.989   9.358 -17.764  1.00  0.00     0.149 C 
ENDBRANCH  15  18
ENDBRANCH   4  12
TORSDOF 2
ENDMDL
MODEL 15
REMARK VINA RESULT:      -7.3     28.092     30.176
REMARK  2 active torsions:
REMARK  status: ('A' for Active; 'I' for Inactive)
REMARK    1  A    between atoms: N_3  and  C_15 
REMARK    2  A    between atoms: C_5  and  C_7 
ROOT
HETATM    1  S   UNL     1      39.181   7.106 -11.658  1.00  0.00    -0.069 SA
HETATM    2  N   UNL     1      40.567   9.227 -11.707  1.00  0.00    -0.344 N 
HETATM    3  C   UNL     1      40.387   8.881 -10.391  1.00  0.00     0.052 A 
HETATM    4  C   UNL     1      39.974   8.315 -12.551  1.00  0.00     0.087 A 
HETATM    5  C   UNL     1      39.643   7.731 -10.183  1.00  0.00     0.034 A 
HETATM    6  C   UNL     1      40.873   9.592  -9.280  1.00  0.00     0.031 A 
HETATM    7  C   UNL     1      39.356   7.238  -8.913  1.00  0.00     0.028 A 
HETATM    8  C   UNL     1      41.257  10.469 -12.081  1.00  0.00     0.157 C 
HETATM    9  C   UNL     1      39.844   7.941  -7.796  1.00  0.00    -0.061 A 
HETATM   10  C   UNL     1      40.600   9.117  -7.988  1.00  0.00     0.009 A 
HETATM   11  C   UNL     1      39.566   7.456  -6.405  1.00  0.00     0.048 C 
ENDROOT
BRANCH   4  12
HETATM   12  C   UNL     1      39.996   8.283 -14.049  1.00  0.00    -0.002 A 
HETATM   13  C   UNL     1      40.715   9.210 -14.824  1.00  0.00     0.016 A 
HETATM   14  C   UNL     1      40.726   9.130 -16.220  1.00  0.00     0.030 A 
HETATM   15  C   UNL     1      40.026   8.111 -16.900  1.00  0.00     0.029 A 
HETATM   16  C   UNL     1      39.325   7.169 -16.118  1.00  0.00     0.030 A 
HETATM   17  C   UNL     1      39.320   7.250 -14.723  1.00  0.00     0.016 A 
BRANCH  15  18
HETATM   18  N   UNL     1      40.036   8.028 -18.342  1.00  0.00    -0.390 N 
HETATM   19  C   UNL     1      41.106   8.647 -19.113  1.00  0.00     0.149 C 
HETATM   20  C   UNL     1      38.977   7.324 -19.052  1.00  0.00     0.149 C 
ENDBRANCH  15  18
ENDBRANCH   4  12
TORSDOF 2
ENDMDL
MODEL 16
REMARK VINA RESULT:      -7.3     27.913     29.204
REMARK  2 active torsions:
REMARK  status: ('A' for Active; 'I' for Inactive)
REMARK    1  A    between atoms: N_3  and  C_15 
REMARK    2  A    between atoms: C_5  and  C_7 
ROOT
HETATM    1  S   UNL     1      38.801   7.104 -15.240  1.00  0.00    -0.069 SA
HETATM    2  N   UNL     1      40.401   9.061 -15.071  1.00  0.00    -0.344 N 
HETATM    3  C   UNL     1      40.284   8.738 -16.399  1.00  0.00     0.052 A 
HETATM    4  C   UNL     1      39.608   8.255 -14.285  1.00  0.00     0.087 A 
HETATM    5  C   UNL     1      39.436   7.676 -16.672  1.00  0.00     0.034 A 
HETATM    6  C   UNL     1      40.950   9.372 -17.462  1.00  0.00     0.031 A 
HETATM    7  C   UNL     1      39.205   7.208 -17.962  1.00  0.00     0.028 A 
HETATM    8  C   UNL     1      41.333  10.105 -14.621  1.00  0.00     0.157 C 
HETATM    9  C   UNL     1      39.863   7.841 -19.032  1.00  0.00    -0.061 A 
HETATM   10  C   UNL     1      40.734   8.921 -18.775  1.00  0.00     0.009 A 
HETATM   11  C   UNL     1      39.651   7.379 -20.442  1.00  0.00     0.048 C 
ENDROOT
BRANCH   4  12
HETATM   12  C   UNL     1      39.391   8.322 -12.804  1.00  0.00    -0.002 A 
HETATM   13  C   UNL     1      39.027   9.506 -12.137  1.00  0.00     0.016 A 
HETATM   14  C   UNL     1      38.812   9.519 -10.756  1.00  0.00     0.030 A 
HETATM   15  C   UNL     1      38.944   8.346  -9.983  1.00  0.00     0.029 A 
HETATM   16  C   UNL     1      39.288   7.156 -10.660  1.00  0.00     0.030 A 
HETATM   17  C   UNL     1      39.497   7.146 -12.041  1.00  0.00     0.016 A 
BRANCH  15  18
HETATM   18  N   UNL     1      38.724   8.358  -8.556  1.00  0.00    -0.390 N 
HETATM   19  C   UNL     1      37.920   9.405  -7.939  1.00  0.00     0.149 C 
HETATM   20  C   UNL     1      39.302   7.326  -7.707  1.00  0.00     0.149 C 
ENDBRANCH  15  18
ENDBRANCH   4  12
TORSDOF 2
ENDMDL
MODEL 17
REMARK VINA RESULT:      -7.2      4.167     10.184
REMARK  2 active torsions:
REMARK  status: ('A' for Active; 'I' for Inactive)
REMARK    1  A    between atoms: N_3  and  C_15 
REMARK    2  A    between atoms: C_5  and  C_7 
ROOT
HETATM    1  S   UNL     1      30.270 -16.953 -14.348  1.00  0.00    -0.069 SA
HETATM    2  N   UNL     1      30.910 -19.366 -14.787  1.00  0.00    -0.344 N 
HETATM    3  C   UNL     1      30.750 -19.221 -13.432  1.00  0.00     0.052 A 
HETATM    4  C   UNL     1      30.649 -18.189 -15.452  1.00  0.00     0.087 A 
HETATM    5  C   UNL     1      30.395 -17.948 -13.016  1.00  0.00     0.034 A 
HETATM    6  C   UNL     1      30.929 -20.231 -12.470  1.00  0.00     0.031 A 
HETATM    7  C   UNL     1      30.200 -17.619 -11.677  1.00  0.00     0.028 A 
HETATM    8  C   UNL     1      31.372 -20.634 -15.369  1.00  0.00     0.157 C 
HETATM    9  C   UNL     1      30.372 -18.625 -10.709  1.00  0.00    -0.061 A 
HETATM   10  C   UNL     1      30.737 -19.927 -11.113  1.00  0.00     0.009 A 
HETATM   11  C   UNL     1      30.173 -18.328  -9.253  1.00  0.00     0.048 C 
ENDROOT
BRANCH   4  12
HETATM   12  C   UNL     1      30.637 -17.938 -16.929  1.00  0.00    -0.002 A 
HETATM   13  C   UNL     1      31.310 -16.857 -17.527  1.00  0.00     0.016 A 
HETATM   14  C   UNL     1      31.291 -16.673 -18.913  1.00  0.00     0.030 A 
HETATM   15  C   UNL     1      30.607 -17.568 -19.762  1.00  0.00     0.029 A 
HETATM   16  C   UNL     1      29.953 -18.664 -19.160  1.00  0.00     0.030 A 
HETATM   17  C   UNL     1      29.977 -18.847 -17.775  1.00  0.00     0.016 A 
BRANCH  15  18
HETATM   18  N   UNL     1      30.587 -17.378 -21.193  1.00  0.00    -0.390 N 
HETATM   19  C   UNL     1      30.826 -16.062 -21.770  1.00  0.00     0.149 C 
HETATM   20  C   UNL     1      30.325 -18.498 -22.087  1.00  0.00     0.149 C 
ENDBRANCH  15  18
ENDBRANCH   4  12
TORSDOF 2
ENDMDL
MODEL 18
REMARK VINA RESULT:      -7.2      2.820      5.129
REMARK  2 active torsions:
REMARK  status: ('A' for Active; 'I' for Inactive)
REMARK    1  A    between atoms: N_3  and  C_15 
REMARK    2  A    between atoms: C_5  and  C_7 
ROOT
HETATM    1  S   UNL     1      30.069 -16.979 -15.070  1.00  0.00    -0.069 SA
HETATM    2  N   UNL     1      30.601 -19.440 -15.353  1.00  0.00    -0.344 N 
HETATM    3  C   UNL     1      30.517 -18.890 -16.607  1.00  0.00     0.052 A 
HETATM    4  C   UNL     1      30.403 -18.493 -14.374  1.00  0.00     0.087 A 
HETATM    5  C   UNL     1      30.229 -17.535 -16.634  1.00  0.00     0.034 A 
HETATM    6  C   UNL     1      30.680 -19.580 -17.821  1.00  0.00     0.031 A 
HETATM    7  C   UNL     1      30.098 -16.816 -17.819  1.00  0.00     0.028 A 
HETATM    8  C   UNL     1      30.811 -20.883 -15.166  1.00  0.00     0.157 C 
HETATM    9  C   UNL     1      30.266 -17.498 -19.038  1.00  0.00    -0.061 A 
HETATM   10  C   UNL     1      30.556 -18.879 -19.031  1.00  0.00     0.009 A 
HETATM   11  C   UNL     1      30.137 -16.774 -20.344  1.00  0.00     0.048 C 
ENDROOT
BRANCH   4  12
HETATM   12  C   UNL     1      30.482 -18.661 -12.887  1.00  0.00    -0.002 A 
HETATM   13  C   UNL     1      30.791 -19.886 -12.270  1.00  0.00     0.016 A 
HETATM   14  C   UNL     1      30.876 -19.993 -10.878  1.00  0.00     0.030 A 
HETATM   15  C   UNL     1      30.666 -18.875 -10.044  1.00  0.00     0.029 A 
HETATM   16  C   UNL     1      30.379 -17.642 -10.668  1.00  0.00     0.030 A 
HETATM   17  C   UNL     1      30.299 -17.538 -12.059  1.00  0.00     0.016 A 
BRANCH  15  18
HETATM   18  N   UNL     1      30.753 -18.984  -8.607  1.00  0.00    -0.390 N 
HETATM   19  C   UNL     1      30.856 -20.289  -7.967  1.00  0.00     0.149 C 
HETATM   20  C   UNL     1      30.739 -17.792  -7.770  1.00  0.00     0.149 C 
ENDBRANCH  15  18
ENDBRANCH   4  12
TORSDOF 2
ENDMDL
