MODEL 1
REMARK VINA RESULT:      -4.8      0.000      0.000
REMARK  15 active torsions:
REMARK  status: ('A' for Active; 'I' for Inactive)
REMARK    1  A    between atoms: O_1  and  C_23 
REMARK    2  A    between atoms: C_3  and  C_7 
REMARK    3  A    between atoms: C_3  and  C_8 
REMARK    4  A    between atoms: C_4  and  C_10 
REMARK    5  A    between atoms: C_4  and  C_11 
REMARK    6  A    between atoms: C_5  and  C_12 
REMARK    7  A    between atoms: C_5  and  C_13 
REMARK    8  A    between atoms: C_6  and  C_15 
REMARK    9  A    between atoms: C_6  and  C_16 
REMARK   10  A    between atoms: C_7  and  C_23 
REMARK   11  A    between atoms: C_9  and  C_17 
REMARK   12  A    between atoms: C_9  and  C_18 
REMARK   13  A    between atoms: C_14  and  C_19 
REMARK   14  A    between atoms: C_14  and  C_20 
REMARK   15  A    between atoms: C_21  and  C_22 
ROOT
HETATM    1  O   UNL     1      29.878 -21.132 -13.900  1.00  0.00    -0.776 OA
HETATM    2  H   UNL     1      29.415 -21.941 -14.157  1.00  0.00     0.167 HD
ENDROOT
BRANCH   1   3
HETATM    3  C   UNL     1      30.550 -20.387 -14.804  1.00  0.00     0.139 C 
HETATM    4  O   UNL     1      31.332 -20.921 -15.577  1.00  0.00    -0.650 OA
BRANCH   3   5
HETATM    5  C   UNL     1      30.329 -18.903 -14.860  1.00  0.00     0.113 C 
BRANCH   5   6
HETATM    6  C   UNL     1      30.308 -18.406 -16.310  1.00  0.00     0.037 C 
BRANCH   6   7
HETATM    7  C   UNL     1      30.541 -16.915 -16.365  1.00  0.00    -0.030 C 
HETATM    8  C   UNL     1      31.005 -16.204 -17.415  1.00  0.00    -0.027 C 
BRANCH   8   9
HETATM    9  C   UNL     1      31.401 -16.727 -18.779  1.00  0.00     0.053 C 
BRANCH   9  10
HETATM   10  C   UNL     1      30.202 -16.815 -19.689  1.00  0.00    -0.027 C 
HETATM   11  C   UNL     1      29.754 -15.835 -20.495  1.00  0.00    -0.027 C 
BRANCH  11  12
HETATM   12  C   UNL     1      30.405 -14.488 -20.678  1.00  0.00     0.053 C 
BRANCH  12  13
HETATM   13  C   UNL     1      29.366 -13.401 -20.798  1.00  0.00    -0.027 C 
HETATM   14  C   UNL     1      28.802 -12.715 -19.786  1.00  0.00    -0.027 C 
BRANCH  14  15
HETATM   15  C   UNL     1      29.058 -12.928 -18.318  1.00  0.00     0.053 C 
BRANCH  15  16
HETATM   16  C   UNL     1      28.057 -13.936 -17.797  1.00  0.00    -0.027 C 
HETATM   17  C   UNL     1      27.638 -14.107 -16.527  1.00  0.00    -0.027 C 
BRANCH  17  18
HETATM   18  C   UNL     1      28.056 -13.315 -15.317  1.00  0.00     0.053 C 
BRANCH  18  19
HETATM   19  C   UNL     1      29.424 -13.746 -14.844  1.00  0.00    -0.027 C 
HETATM   20  C   UNL     1      30.553 -13.009 -14.814  1.00  0.00    -0.027 C 
BRANCH  20  21
HETATM   21  C   UNL     1      30.702 -11.557 -15.197  1.00  0.00     0.053 C 
BRANCH  21  22
HETATM   22  C   UNL     1      32.160 -11.180 -15.320  1.00  0.00    -0.027 C 
HETATM   23  C   UNL     1      32.923 -11.224 -16.429  1.00  0.00    -0.031 C 
BRANCH  23  24
HETATM   24  C   UNL     1      32.490 -11.682 -17.798  1.00  0.00     0.022 C 
HETATM   25  C   UNL     1      32.889 -13.124 -18.084  1.00  0.00     0.009 C 
ENDBRANCH  23  24
ENDBRANCH  21  22
ENDBRANCH  20  21
ENDBRANCH  18  19
ENDBRANCH  17  18
ENDBRANCH  15  16
ENDBRANCH  14  15
ENDBRANCH  12  13
ENDBRANCH  11  12
ENDBRANCH   9  10
ENDBRANCH   8   9
ENDBRANCH   6   7
ENDBRANCH   5   6
ENDBRANCH   3   5
ENDBRANCH   1   3
TORSDOF 15
ENDMDL
MODEL 2
REMARK VINA RESULT:      -4.7      7.519     10.272
REMARK  15 active torsions:
REMARK  status: ('A' for Active; 'I' for Inactive)
REMARK    1  A    between atoms: O_1  and  C_23 
REMARK    2  A    between atoms: C_3  and  C_7 
REMARK    3  A    between atoms: C_3  and  C_8 
REMARK    4  A    between atoms: C_4  and  C_10 
REMARK    5  A    between atoms: C_4  and  C_11 
REMARK    6  A    between atoms: C_5  and  C_12 
REMARK    7  A    between atoms: C_5  and  C_13 
REMARK    8  A    between atoms: C_6  and  C_15 
REMARK    9  A    between atoms: C_6  and  C_16 
REMARK   10  A    between atoms: C_7  and  C_23 
REMARK   11  A    between atoms: C_9  and  C_17 
REMARK   12  A    between atoms: C_9  and  C_18 
REMARK   13  A    between atoms: C_14  and  C_19 
REMARK   14  A    between atoms: C_14  and  C_20 
REMARK   15  A    between atoms: C_21  and  C_22 
ROOT
HETATM    1  O   UNL     1      31.786 -21.269 -10.182  1.00  0.00    -0.776 OA
HETATM    2  H   UNL     1      32.620 -21.108  -9.720  1.00  0.00     0.167 HD
ENDROOT
BRANCH   1   3
HETATM    3  C   UNL     1      30.792 -20.356 -10.180  1.00  0.00     0.139 C 
HETATM    4  O   UNL     1      30.621 -19.635 -11.152  1.00  0.00    -0.650 OA
BRANCH   3   5
HETATM    5  C   UNL     1      29.897 -20.231  -8.980  1.00  0.00     0.113 C 
BRANCH   5   6
HETATM    6  C   UNL     1      30.567 -19.400  -7.880  1.00  0.00     0.037 C 
BRANCH   6   7
HETATM    7  C   UNL     1      30.913 -20.268  -6.694  1.00  0.00    -0.030 C 
HETATM    8  C   UNL     1      30.731 -19.970  -5.390  1.00  0.00    -0.027 C 
BRANCH   8   9
HETATM    9  C   UNL     1      30.141 -18.704  -4.807  1.00  0.00     0.053 C 
BRANCH   9  10
HETATM   10  C   UNL     1      31.180 -17.615  -4.727  1.00  0.00    -0.027 C 
HETATM   11  C   UNL     1      31.152 -16.451  -5.400  1.00  0.00    -0.027 C 
BRANCH  11  12
HETATM   12  C   UNL     1      30.045 -15.997  -6.316  1.00  0.00     0.053 C 
BRANCH  12  13
HETATM   13  C   UNL     1      30.481 -16.057  -7.759  1.00  0.00    -0.027 C 
HETATM   14  C   UNL     1      29.837 -15.526  -8.815  1.00  0.00    -0.027 C 
BRANCH  14  15
HETATM   15  C   UNL     1      28.518 -14.802  -8.777  1.00  0.00     0.053 C 
BRANCH  15  16
HETATM   16  C   UNL     1      28.385 -13.978 -10.039  1.00  0.00    -0.027 C 
HETATM   17  C   UNL     1      28.857 -12.737 -10.271  1.00  0.00    -0.027 C 
BRANCH  17  18
HETATM   18  C   UNL     1      29.654 -11.875  -9.327  1.00  0.00     0.053 C 
BRANCH  18  19
HETATM   19  C   UNL     1      31.116 -11.881  -9.706  1.00  0.00    -0.027 C 
HETATM   20  C   UNL     1      32.156 -12.306  -8.959  1.00  0.00    -0.027 C 
BRANCH  20  21
HETATM   21  C   UNL     1      32.096 -12.929  -7.586  1.00  0.00     0.053 C 
BRANCH  21  22
HETATM   22  C   UNL     1      32.014 -11.866  -6.516  1.00  0.00    -0.027 C 
HETATM   23  C   UNL     1      30.985 -11.628  -5.680  1.00  0.00    -0.031 C 
BRANCH  23  24
HETATM   24  C   UNL     1      29.671 -12.364  -5.642  1.00  0.00     0.022 C 
HETATM   25  C   UNL     1      29.383 -12.973  -4.276  1.00  0.00     0.009 C 
ENDBRANCH  23  24
ENDBRANCH  21  22
ENDBRANCH  20  21
ENDBRANCH  18  19
ENDBRANCH  17  18
ENDBRANCH  15  16
ENDBRANCH  14  15
ENDBRANCH  12  13
ENDBRANCH  11  12
ENDBRANCH   9  10
ENDBRANCH   8   9
ENDBRANCH   6   7
ENDBRANCH   5   6
ENDBRANCH   3   5
ENDBRANCH   1   3
TORSDOF 15
ENDMDL
MODEL 3
REMARK VINA RESULT:      -4.7     24.445     26.331
REMARK  15 active torsions:
REMARK  status: ('A' for Active; 'I' for Inactive)
REMARK    1  A    between atoms: O_1  and  C_23 
REMARK    2  A    between atoms: C_3  and  C_7 
REMARK    3  A    between atoms: C_3  and  C_8 
REMARK    4  A    between atoms: C_4  and  C_10 
REMARK    5  A    between atoms: C_4  and  C_11 
REMARK    6  A    between atoms: C_5  and  C_12 
REMARK    7  A    between atoms: C_5  and  C_13 
REMARK    8  A    between atoms: C_6  and  C_15 
REMARK    9  A    between atoms: C_6  and  C_16 
REMARK   10  A    between atoms: C_7  and  C_23 
REMARK   11  A    between atoms: C_9  and  C_17 
REMARK   12  A    between atoms: C_9  and  C_18 
REMARK   13  A    between atoms: C_14  and  C_19 
REMARK   14  A    between atoms: C_14  and  C_20 
REMARK   15  A    between atoms: C_21  and  C_22 
ROOT
HETATM    1  O   UNL     1      40.952   8.698 -23.064  1.00  0.00    -0.776 OA
HETATM    2  H   UNL     1      41.014   9.523 -23.564  1.00  0.00     0.167 HD
ENDROOT
BRANCH   1   3
HETATM    3  C   UNL     1      39.963   7.807 -23.298  1.00  0.00     0.139 C 
HETATM    4  O   UNL     1      39.677   7.497 -24.445  1.00  0.00    -0.650 OA
BRANCH   3   5
HETATM    5  C   UNL     1      39.220   7.198 -22.143  1.00  0.00     0.113 C 
BRANCH   5   6
HETATM    6  C   UNL     1      39.567   7.911 -20.831  1.00  0.00     0.037 C 
BRANCH   6   7
HETATM    7  C   UNL     1      38.311   8.337 -20.108  1.00  0.00    -0.030 C 
HETATM    8  C   UNL     1      38.198   8.669 -18.805  1.00  0.00    -0.027 C 
BRANCH   8   9
HETATM    9  C   UNL     1      39.294   8.696 -17.762  1.00  0.00     0.053 C 
BRANCH   9  10
HETATM   10  C   UNL     1      39.492   7.329 -17.156  1.00  0.00    -0.027 C 
HETATM   11  C   UNL     1      39.418   7.032 -15.846  1.00  0.00    -0.027 C 
BRANCH  11  12
HETATM   12  C   UNL     1      39.067   8.003 -14.748  1.00  0.00     0.053 C 
BRANCH  12  13
HETATM   13  C   UNL     1      40.246   8.233 -13.836  1.00  0.00    -0.027 C 
HETATM   14  C   UNL     1      40.202   8.466 -12.511  1.00  0.00    -0.027 C 
BRANCH  14  15
HETATM   15  C   UNL     1      38.957   8.593 -11.673  1.00  0.00     0.053 C 
BRANCH  15  16
HETATM   16  C   UNL     1      38.766   7.308 -10.897  1.00  0.00    -0.027 C 
HETATM   17  C   UNL     1      39.187   7.025  -9.648  1.00  0.00    -0.027 C 
BRANCH  17  18
HETATM   18  C   UNL     1      39.937   7.936  -8.712  1.00  0.00     0.053 C 
BRANCH  18  19
HETATM   19  C   UNL     1      38.977   8.714  -7.842  1.00  0.00    -0.027 C 
HETATM   20  C   UNL     1      38.443   8.332  -6.664  1.00  0.00    -0.027 C 
BRANCH  20  21
HETATM   21  C   UNL     1      38.723   7.057  -5.909  1.00  0.00     0.053 C 
BRANCH  21  22
HETATM   22  C   UNL     1      38.900   7.333  -4.434  1.00  0.00    -0.027 C 
HETATM   23  C   UNL     1      39.960   7.911  -3.835  1.00  0.00    -0.031 C 
BRANCH  23  24
HETATM   24  C   UNL     1      41.217   8.396  -4.508  1.00  0.00     0.022 C 
HETATM   25  C   UNL     1      41.302   9.916  -4.560  1.00  0.00     0.009 C 
ENDBRANCH  23  24
ENDBRANCH  21  22
ENDBRANCH  20  21
ENDBRANCH  18  19
ENDBRANCH  17  18
ENDBRANCH  15  16
ENDBRANCH  14  15
ENDBRANCH  12  13
ENDBRANCH  11  12
ENDBRANCH   9  10
ENDBRANCH   8   9
ENDBRANCH   6   7
ENDBRANCH   5   6
ENDBRANCH   3   5
ENDBRANCH   1   3
TORSDOF 15
ENDMDL
MODEL 4
REMARK VINA RESULT:      -4.7      7.476     10.506
REMARK  15 active torsions:
REMARK  status: ('A' for Active; 'I' for Inactive)
REMARK    1  A    between atoms: O_1  and  C_23 
REMARK    2  A    between atoms: C_3  and  C_7 
REMARK    3  A    between atoms: C_3  and  C_8 
REMARK    4  A    between atoms: C_4  and  C_10 
REMARK    5  A    between atoms: C_4  and  C_11 
REMARK    6  A    between atoms: C_5  and  C_12 
REMARK    7  A    between atoms: C_5  and  C_13 
REMARK    8  A    between atoms: C_6  and  C_15 
REMARK    9  A    between atoms: C_6  and  C_16 
REMARK   10  A    between atoms: C_7  and  C_23 
REMARK   11  A    between atoms: C_9  and  C_17 
REMARK   12  A    between atoms: C_9  and  C_18 
REMARK   13  A    between atoms: C_14  and  C_19 
REMARK   14  A    between atoms: C_14  and  C_20 
REMARK   15  A    between atoms: C_21  and  C_22 
ROOT
HETATM    1  O   UNL     1      25.975 -13.125 -10.571  1.00  0.00    -0.776 OA
HETATM    2  H   UNL     1      26.322 -12.342 -10.123  1.00  0.00     0.167 HD
ENDROOT
BRANCH   1   3
HETATM    3  C   UNL     1      26.722 -13.816 -11.459  1.00  0.00     0.139 C 
HETATM    4  O   UNL     1      26.180 -14.502 -12.313  1.00  0.00    -0.650 OA
BRANCH   3   5
HETATM    5  C   UNL     1      28.221 -13.735 -11.396  1.00  0.00     0.113 C 
BRANCH   5   6
HETATM    6  C   UNL     1      28.830 -15.103 -11.070  1.00  0.00     0.037 C 
BRANCH   6   7
HETATM    7  C   UNL     1      29.766 -15.545 -12.169  1.00  0.00    -0.030 C 
HETATM    8  C   UNL     1      30.814 -16.388 -12.053  1.00  0.00    -0.027 C 
BRANCH   8   9
HETATM    9  C   UNL     1      31.299 -17.089 -10.801  1.00  0.00     0.053 C 
BRANCH   9  10
HETATM   10  C   UNL     1      30.690 -18.463 -10.686  1.00  0.00    -0.027 C 
HETATM   11  C   UNL     1      30.073 -18.960  -9.599  1.00  0.00    -0.027 C 
BRANCH  11  12
HETATM   12  C   UNL     1      29.825 -18.210  -8.316  1.00  0.00     0.053 C 
BRANCH  12  13
HETATM   13  C   UNL     1      30.542 -18.867  -7.162  1.00  0.00    -0.027 C 
HETATM   14  C   UNL     1      30.689 -18.369  -5.920  1.00  0.00    -0.027 C 
BRANCH  14  15
HETATM   15  C   UNL     1      30.207 -17.026  -5.440  1.00  0.00     0.053 C 
BRANCH  15  16
HETATM   16  C   UNL     1      31.410 -16.144  -5.192  1.00  0.00    -0.027 C 
HETATM   17  C   UNL     1      32.099 -15.409  -6.089  1.00  0.00    -0.027 C 
BRANCH  17  18
HETATM   18  C   UNL     1      31.818 -15.277  -7.562  1.00  0.00     0.053 C 
BRANCH  18  19
HETATM   19  C   UNL     1      31.213 -13.926  -7.870  1.00  0.00    -0.027 C 
HETATM   20  C   UNL     1      29.906 -13.594  -7.878  1.00  0.00    -0.027 C 
BRANCH  20  21
HETATM   21  C   UNL     1      28.740 -14.484  -7.526  1.00  0.00     0.053 C 
BRANCH  21  22
HETATM   22  C   UNL     1      27.657 -13.698  -6.823  1.00  0.00    -0.027 C 
HETATM   23  C   UNL     1      27.584 -13.404  -5.510  1.00  0.00    -0.031 C 
BRANCH  23  24
HETATM   24  C   UNL     1      28.565 -13.816  -4.443  1.00  0.00     0.022 C 
HETATM   25  C   UNL     1      29.696 -12.810  -4.272  1.00  0.00     0.009 C 
ENDBRANCH  23  24
ENDBRANCH  21  22
ENDBRANCH  20  21
ENDBRANCH  18  19
ENDBRANCH  17  18
ENDBRANCH  15  16
ENDBRANCH  14  15
ENDBRANCH  12  13
ENDBRANCH  11  12
ENDBRANCH   9  10
ENDBRANCH   8   9
ENDBRANCH   6   7
ENDBRANCH   5   6
ENDBRANCH   3   5
ENDBRANCH   1   3
TORSDOF 15
ENDMDL
MODEL 5
REMARK VINA RESULT:      -4.6      1.371      4.547
REMARK  15 active torsions:
REMARK  status: ('A' for Active; 'I' for Inactive)
REMARK    1  A    between atoms: O_1  and  C_23 
REMARK    2  A    between atoms: C_3  and  C_7 
REMARK    3  A    between atoms: C_3  and  C_8 
REMARK    4  A    between atoms: C_4  and  C_10 
REMARK    5  A    between atoms: C_4  and  C_11 
REMARK    6  A    between atoms: C_5  and  C_12 
REMARK    7  A    between atoms: C_5  and  C_13 
REMARK    8  A    between atoms: C_6  and  C_15 
REMARK    9  A    between atoms: C_6  and  C_16 
REMARK   10  A    between atoms: C_7  and  C_23 
REMARK   11  A    between atoms: C_9  and  C_17 
REMARK   12  A    between atoms: C_9  and  C_18 
REMARK   13  A    between atoms: C_14  and  C_19 
REMARK   14  A    between atoms: C_14  and  C_20 
REMARK   15  A    between atoms: C_21  and  C_22 
ROOT
HETATM    1  O   UNL     1      31.970 -20.779 -14.348  1.00  0.00    -0.776 OA
HETATM    2  H   UNL     1      31.944 -21.694 -14.660  1.00  0.00     0.167 HD
ENDROOT
BRANCH   1   3
HETATM    3  C   UNL     1      31.048 -20.305 -13.483  1.00  0.00     0.139 C 
HETATM    4  O   UNL     1      31.142 -20.555 -12.289  1.00  0.00    -0.650 OA
BRANCH   3   5
HETATM    5  C   UNL     1      29.910 -19.466 -13.991  1.00  0.00     0.113 C 
BRANCH   5   6
HETATM    6  C   UNL     1      30.352 -18.608 -15.182  1.00  0.00     0.037 C 
BRANCH   6   7
HETATM    7  C   UNL     1      31.111 -17.391 -14.709  1.00  0.00    -0.030 C 
HETATM    8  C   UNL     1      30.712 -16.104 -14.786  1.00  0.00    -0.027 C 
BRANCH   8   9
HETATM    9  C   UNL     1      29.416 -15.574 -15.362  1.00  0.00     0.053 C 
BRANCH   9  10
HETATM   10  C   UNL     1      28.589 -14.903 -14.295  1.00  0.00    -0.027 C 
HETATM   11  C   UNL     1      28.147 -13.633 -14.327  1.00  0.00    -0.027 C 
BRANCH  11  12
HETATM   12  C   UNL     1      28.349 -12.665 -15.464  1.00  0.00     0.053 C 
BRANCH  12  13
HETATM   13  C   UNL     1      29.293 -11.558 -15.066  1.00  0.00    -0.027 C 
HETATM   14  C   UNL     1      30.624 -11.529 -15.261  1.00  0.00    -0.027 C 
BRANCH  14  15
HETATM   15  C   UNL     1      31.455 -12.625 -15.874  1.00  0.00     0.053 C 
BRANCH  15  16
HETATM   16  C   UNL     1      31.988 -12.138 -17.203  1.00  0.00    -0.027 C 
HETATM   17  C   UNL     1      31.376 -12.169 -18.403  1.00  0.00    -0.027 C 
BRANCH  17  18
HETATM   18  C   UNL     1      29.993 -12.684 -18.706  1.00  0.00     0.053 C 
BRANCH  18  19
HETATM   19  C   UNL     1      29.996 -13.509 -19.971  1.00  0.00    -0.027 C 
HETATM   20  C   UNL     1      29.814 -14.841 -20.084  1.00  0.00    -0.027 C 
BRANCH  20  21
HETATM   21  C   UNL     1      29.508 -15.815 -18.973  1.00  0.00     0.053 C 
BRANCH  21  22
HETATM   22  C   UNL     1      30.475 -16.976 -18.994  1.00  0.00    -0.027 C 
HETATM   23  C   UNL     1      31.739 -16.993 -18.527  1.00  0.00    -0.031 C 
BRANCH  23  24
HETATM   24  C   UNL     1      32.477 -15.843 -17.893  1.00  0.00     0.022 C 
HETATM   25  C   UNL     1      33.504 -15.222 -18.831  1.00  0.00     0.009 C 
ENDBRANCH  23  24
ENDBRANCH  21  22
ENDBRANCH  20  21
ENDBRANCH  18  19
ENDBRANCH  17  18
ENDBRANCH  15  16
ENDBRANCH  14  15
ENDBRANCH  12  13
ENDBRANCH  11  12
ENDBRANCH   9  10
ENDBRANCH   8   9
ENDBRANCH   6   7
ENDBRANCH   5   6
ENDBRANCH   3   5
ENDBRANCH   1   3
TORSDOF 15
ENDMDL
MODEL 6
REMARK VINA RESULT:      -4.6     24.826     27.665
REMARK  15 active torsions:
REMARK  status: ('A' for Active; 'I' for Inactive)
REMARK    1  A    between atoms: O_1  and  C_23 
REMARK    2  A    between atoms: C_3  and  C_7 
REMARK    3  A    between atoms: C_3  and  C_8 
REMARK    4  A    between atoms: C_4  and  C_10 
REMARK    5  A    between atoms: C_4  and  C_11 
REMARK    6  A    between atoms: C_5  and  C_12 
REMARK    7  A    between atoms: C_5  and  C_13 
REMARK    8  A    between atoms: C_6  and  C_15 
REMARK    9  A    between atoms: C_6  and  C_16 
REMARK   10  A    between atoms: C_7  and  C_23 
REMARK   11  A    between atoms: C_9  and  C_17 
REMARK   12  A    between atoms: C_9  and  C_18 
REMARK   13  A    between atoms: C_14  and  C_19 
REMARK   14  A    between atoms: C_14  and  C_20 
REMARK   15  A    between atoms: C_21  and  C_22 
ROOT
HETATM    1  O   UNL     1      41.691   9.664 -14.625  1.00  0.00    -0.776 OA
HETATM    2  H   UNL     1      42.221   9.410 -15.393  1.00  0.00     0.167 HD
ENDROOT
BRANCH   1   3
HETATM    3  C   UNL     1      40.879   8.780 -14.007  1.00  0.00     0.139 C 
HETATM    4  O   UNL     1      40.425   7.828 -14.626  1.00  0.00    -0.650 OA
BRANCH   3   5
HETATM    5  C   UNL     1      40.537   8.969 -12.556  1.00  0.00     0.113 C 
BRANCH   5   6
HETATM    6  C   UNL     1      39.119   8.468 -12.258  1.00  0.00     0.037 C 
BRANCH   6   7
HETATM    7  C   UNL     1      39.153   7.052 -11.736  1.00  0.00    -0.030 C 
HETATM    8  C   UNL     1      39.268   6.663 -10.449  1.00  0.00    -0.027 C 
BRANCH   8   9
HETATM    9  C   UNL     1      39.390   7.548  -9.226  1.00  0.00     0.053 C 
BRANCH   9  10
HETATM   10  C   UNL     1      40.804   8.047  -9.064  1.00  0.00    -0.027 C 
HETATM   11  C   UNL     1      41.160   9.282  -8.665  1.00  0.00    -0.027 C 
BRANCH  11  12
HETATM   12  C   UNL     1      40.209  10.375  -8.251  1.00  0.00     0.053 C 
BRANCH  12  13
HETATM   13  C   UNL     1      39.709  11.137  -9.453  1.00  0.00    -0.027 C 
HETATM   14  C   UNL     1      38.447  11.161  -9.921  1.00  0.00    -0.027 C 
BRANCH  14  15
HETATM   15  C   UNL     1      37.281  10.388  -9.366  1.00  0.00     0.053 C 
BRANCH  15  16
HETATM   16  C   UNL     1      36.289  11.369  -8.781  1.00  0.00    -0.027 C 
HETATM   17  C   UNL     1      36.289  11.912  -7.547  1.00  0.00    -0.027 C 
BRANCH  17  18
HETATM   18  C   UNL     1      37.299  11.683  -6.453  1.00  0.00     0.053 C 
BRANCH  18  19
HETATM   19  C   UNL     1      36.758  10.720  -5.422  1.00  0.00    -0.027 C 
HETATM   20  C   UNL     1      36.979   9.392  -5.344  1.00  0.00    -0.027 C 
BRANCH  20  21
HETATM   21  C   UNL     1      37.865   8.563  -6.241  1.00  0.00     0.053 C 
BRANCH  21  22
HETATM   22  C   UNL     1      38.528   7.450  -5.462  1.00  0.00    -0.027 C 
HETATM   23  C   UNL     1      39.768   7.451  -4.935  1.00  0.00    -0.031 C 
BRANCH  23  24
HETATM   24  C   UNL     1      40.780   8.563  -5.023  1.00  0.00     0.022 C 
HETATM   25  C   UNL     1      40.658   9.555  -3.874  1.00  0.00     0.009 C 
ENDBRANCH  23  24
ENDBRANCH  21  22
ENDBRANCH  20  21
ENDBRANCH  18  19
ENDBRANCH  17  18
ENDBRANCH  15  16
ENDBRANCH  14  15
ENDBRANCH  12  13
ENDBRANCH  11  12
ENDBRANCH   9  10
ENDBRANCH   8   9
ENDBRANCH   6   7
ENDBRANCH   5   6
ENDBRANCH   3   5
ENDBRANCH   1   3
TORSDOF 15
ENDMDL
MODEL 7
REMARK VINA RESULT:      -4.6      2.562      4.894
REMARK  15 active torsions:
REMARK  status: ('A' for Active; 'I' for Inactive)
REMARK    1  A    between atoms: O_1  and  C_23 
REMARK    2  A    between atoms: C_3  and  C_7 
REMARK    3  A    between atoms: C_3  and  C_8 
REMARK    4  A    between atoms: C_4  and  C_10 
REMARK    5  A    between atoms: C_4  and  C_11 
REMARK    6  A    between atoms: C_5  and  C_12 
REMARK    7  A    between atoms: C_5  and  C_13 
REMARK    8  A    between atoms: C_6  and  C_15 
REMARK    9  A    between atoms: C_6  and  C_16 
REMARK   10  A    between atoms: C_7  and  C_23 
REMARK   11  A    between atoms: C_9  and  C_17 
REMARK   12  A    between atoms: C_9  and  C_18 
REMARK   13  A    between atoms: C_14  and  C_19 
REMARK   14  A    between atoms: C_14  and  C_20 
REMARK   15  A    between atoms: C_21  and  C_22 
ROOT
HETATM    1  O   UNL     1      32.410 -20.528 -19.511  1.00  0.00    -0.776 OA
HETATM    2  H   UNL     1      32.695 -19.996 -18.755  1.00  0.00     0.167 HD
ENDROOT
BRANCH   1   3
HETATM    3  C   UNL     1      31.119 -20.556 -19.906  1.00  0.00     0.139 C 
HETATM    4  O   UNL     1      30.835 -20.897 -21.045  1.00  0.00    -0.650 OA
BRANCH   3   5
HETATM    5  C   UNL     1      30.035 -20.171 -18.940  1.00  0.00     0.113 C 
BRANCH   5   6
HETATM    6  C   UNL     1      30.362 -18.841 -18.252  1.00  0.00     0.037 C 
BRANCH   6   7
HETATM    7  C   UNL     1      30.498 -19.033 -16.760  1.00  0.00    -0.030 C 
HETATM    8  C   UNL     1      30.376 -18.087 -15.805  1.00  0.00    -0.027 C 
BRANCH   8   9
HETATM    9  C   UNL     1      30.074 -16.616 -15.998  1.00  0.00     0.053 C 
BRANCH   9  10
HETATM   10  C   UNL     1      31.272 -15.772 -15.643  1.00  0.00    -0.027 C 
HETATM   11  C   UNL     1      32.260 -15.416 -16.485  1.00  0.00    -0.027 C 
BRANCH  11  12
HETATM   12  C   UNL     1      32.320 -15.749 -17.953  1.00  0.00     0.053 C 
BRANCH  12  13
HETATM   13  C   UNL     1      33.658 -15.371 -18.536  1.00  0.00    -0.027 C 
HETATM   14  C   UNL     1      33.877 -14.526 -19.561  1.00  0.00    -0.027 C 
BRANCH  14  15
HETATM   15  C   UNL     1      32.822 -13.821 -20.371  1.00  0.00     0.053 C 
BRANCH  15  16
HETATM   16  C   UNL     1      32.867 -12.346 -20.039  1.00  0.00    -0.027 C 
HETATM   17  C   UNL     1      31.840 -11.539 -19.707  1.00  0.00    -0.027 C 
BRANCH  17  18
HETATM   18  C   UNL     1      30.390 -11.924 -19.566  1.00  0.00     0.053 C 
BRANCH  18  19
HETATM   19  C   UNL     1      30.132 -12.544 -18.213  1.00  0.00    -0.027 C 
HETATM   20  C   UNL     1      29.276 -13.544 -17.918  1.00  0.00    -0.027 C 
BRANCH  20  21
HETATM   21  C   UNL     1      28.413 -14.317 -18.883  1.00  0.00     0.053 C 
BRANCH  21  22
HETATM   22  C   UNL     1      29.205 -15.416 -19.553  1.00  0.00    -0.027 C 
HETATM   23  C   UNL     1      29.397 -15.593 -20.874  1.00  0.00    -0.031 C 
BRANCH  23  24
HETATM   24  C   UNL     1      28.843 -14.738 -21.984  1.00  0.00     0.022 C 
HETATM   25  C   UNL     1      29.893 -13.814 -22.587  1.00  0.00     0.009 C 
ENDBRANCH  23  24
ENDBRANCH  21  22
ENDBRANCH  20  21
ENDBRANCH  18  19
ENDBRANCH  17  18
ENDBRANCH  15  16
ENDBRANCH  14  15
ENDBRANCH  12  13
ENDBRANCH  11  12
ENDBRANCH   9  10
ENDBRANCH   8   9
ENDBRANCH   6   7
ENDBRANCH   5   6
ENDBRANCH   3   5
ENDBRANCH   1   3
TORSDOF 15
ENDMDL
MODEL 8
REMARK VINA RESULT:      -4.6      5.672      7.792
REMARK  15 active torsions:
REMARK  status: ('A' for Active; 'I' for Inactive)
REMARK    1  A    between atoms: O_1  and  C_23 
REMARK    2  A    between atoms: C_3  and  C_7 
REMARK    3  A    between atoms: C_3  and  C_8 
REMARK    4  A    between atoms: C_4  and  C_10 
REMARK    5  A    between atoms: C_4  and  C_11 
REMARK    6  A    between atoms: C_5  and  C_12 
REMARK    7  A    between atoms: C_5  and  C_13 
REMARK    8  A    between atoms: C_6  and  C_15 
REMARK    9  A    between atoms: C_6  and  C_16 
REMARK   10  A    between atoms: C_7  and  C_23 
REMARK   11  A    between atoms: C_9  and  C_17 
REMARK   12  A    between atoms: C_9  and  C_18 
REMARK   13  A    between atoms: C_14  and  C_19 
REMARK   14  A    between atoms: C_14  and  C_20 
REMARK   15  A    between atoms: C_21  and  C_22 
ROOT
HETATM    1  O   UNL     1      29.852 -21.120  -9.011  1.00  0.00    -0.776 OA
HETATM    2  H   UNL     1      29.717 -20.999  -8.061  1.00  0.00     0.167 HD
ENDROOT
BRANCH   1   3
HETATM    3  C   UNL     1      30.786 -20.416  -9.685  1.00  0.00     0.139 C 
HETATM    4  O   UNL     1      31.292 -20.881 -10.697  1.00  0.00    -0.650 OA
BRANCH   3   5
HETATM    5  C   UNL     1      31.200 -19.060  -9.189  1.00  0.00     0.113 C 
BRANCH   5   6
HETATM    6  C   UNL     1      30.033 -18.353  -8.491  1.00  0.00     0.037 C 
BRANCH   6   7
HETATM    7  C   UNL     1      30.309 -18.200  -7.015  1.00  0.00    -0.030 C 
HETATM    8  C   UNL     1      30.777 -17.101  -6.386  1.00  0.00    -0.027 C 
BRANCH   8   9
HETATM    9  C   UNL     1      31.135 -15.767  -7.005  1.00  0.00     0.053 C 
BRANCH   9  10
HETATM   10  C   UNL     1      32.513 -15.811  -7.617  1.00  0.00    -0.027 C 
HETATM   11  C   UNL     1      32.847 -15.345  -8.834  1.00  0.00    -0.027 C 
BRANCH  11  12
HETATM   12  C   UNL     1      31.916 -14.640  -9.786  1.00  0.00     0.053 C 
BRANCH  12  13
HETATM   13  C   UNL     1      31.303 -15.615 -10.760  1.00  0.00    -0.027 C 
HETATM   14  C   UNL     1      29.990 -15.828 -10.963  1.00  0.00    -0.027 C 
BRANCH  14  15
HETATM   15  C   UNL     1      28.859 -15.167 -10.221  1.00  0.00     0.053 C 
BRANCH  15  16
HETATM   16  C   UNL     1      27.970 -14.465 -11.224  1.00  0.00    -0.027 C 
HETATM   17  C   UNL     1      28.170 -13.270 -11.814  1.00  0.00    -0.027 C 
BRANCH  17  18
HETATM   18  C   UNL     1      29.347 -12.349 -11.627  1.00  0.00     0.053 C 
BRANCH  18  19
HETATM   19  C   UNL     1      30.369 -12.561 -12.719  1.00  0.00    -0.027 C 
HETATM   20  C   UNL     1      31.676 -12.227 -12.698  1.00  0.00    -0.027 C 
BRANCH  20  21
HETATM   21  C   UNL     1      32.438 -11.609 -11.552  1.00  0.00     0.053 C 
BRANCH  21  22
HETATM   22  C   UNL     1      33.820 -11.186 -11.991  1.00  0.00    -0.027 C 
HETATM   23  C   UNL     1      34.977 -11.848 -11.793  1.00  0.00    -0.031 C 
BRANCH  23  24
HETATM   24  C   UNL     1      35.148 -13.158 -11.068  1.00  0.00     0.022 C 
HETATM   25  C   UNL     1      34.924 -14.361 -11.976  1.00  0.00     0.009 C 
ENDBRANCH  23  24
ENDBRANCH  21  22
ENDBRANCH  20  21
ENDBRANCH  18  19
ENDBRANCH  17  18
ENDBRANCH  15  16
ENDBRANCH  14  15
ENDBRANCH  12  13
ENDBRANCH  11  12
ENDBRANCH   9  10
ENDBRANCH   8   9
ENDBRANCH   6   7
ENDBRANCH   5   6
ENDBRANCH   3   5
ENDBRANCH   1   3
TORSDOF 15
ENDMDL
MODEL 9
REMARK VINA RESULT:      -4.6      4.205      6.001
REMARK  15 active torsions:
REMARK  status: ('A' for Active; 'I' for Inactive)
REMARK    1  A    between atoms: O_1  and  C_23 
REMARK    2  A    between atoms: C_3  and  C_7 
REMARK    3  A    between atoms: C_3  and  C_8 
REMARK    4  A    between atoms: C_4  and  C_10 
REMARK    5  A    between atoms: C_4  and  C_11 
REMARK    6  A    between atoms: C_5  and  C_12 
REMARK    7  A    between atoms: C_5  and  C_13 
REMARK    8  A    between atoms: C_6  and  C_15 
REMARK    9  A    between atoms: C_6  and  C_16 
REMARK   10  A    between atoms: C_7  and  C_23 
REMARK   11  A    between atoms: C_9  and  C_17 
REMARK   12  A    between atoms: C_9  and  C_18 
REMARK   13  A    between atoms: C_14  and  C_19 
REMARK   14  A    between atoms: C_14  and  C_20 
REMARK   15  A    between atoms: C_21  and  C_22 
ROOT
HETATM    1  O   UNL     1      31.769 -21.122 -10.060  1.00  0.00    -0.776 OA
HETATM    2  H   UNL     1      32.545 -20.723  -9.643  1.00  0.00     0.167 HD
ENDROOT
BRANCH   1   3
HETATM    3  C   UNL     1      30.957 -20.407 -10.868  1.00  0.00     0.139 C 
HETATM    4  O   UNL     1      30.752 -20.779 -12.015  1.00  0.00    -0.650 OA
BRANCH   3   5
HETATM    5  C   UNL     1      30.304 -19.157 -10.352  1.00  0.00     0.113 C 
BRANCH   5   6
HETATM    6  C   UNL     1      30.878 -17.914 -11.042  1.00  0.00     0.037 C 
BRANCH   6   7
HETATM    7  C   UNL     1      30.130 -17.623 -12.321  1.00  0.00    -0.030 C 
HETATM    8  C   UNL     1      30.252 -16.529 -13.103  1.00  0.00    -0.027 C 
BRANCH   8   9
HETATM    9  C   UNL     1      31.162 -15.339 -12.886  1.00  0.00     0.053 C 
BRANCH   9  10
HETATM   10  C   UNL     1      30.917 -14.279 -13.929  1.00  0.00    -0.027 C 
HETATM   11  C   UNL     1      30.153 -13.183 -13.771  1.00  0.00    -0.027 C 
BRANCH  11  12
HETATM   12  C   UNL     1      29.450 -12.784 -12.500  1.00  0.00     0.053 C 
BRANCH  12  13
HETATM   13  C   UNL     1      28.132 -13.505 -12.365  1.00  0.00    -0.027 C 
HETATM   14  C   UNL     1      27.770 -14.338 -11.372  1.00  0.00    -0.027 C 
BRANCH  14  15
HETATM   15  C   UNL     1      28.631 -14.760 -10.211  1.00  0.00     0.053 C 
BRANCH  15  16
HETATM   16  C   UNL     1      28.594 -13.669  -9.164  1.00  0.00    -0.027 C 
HETATM   17  C   UNL     1      29.611 -12.888  -8.744  1.00  0.00    -0.027 C 
BRANCH  17  18
HETATM   18  C   UNL     1      31.033 -12.905  -9.238  1.00  0.00     0.053 C 
BRANCH  18  19
HETATM   19  C   UNL     1      31.548 -11.498  -9.430  1.00  0.00    -0.027 C 
HETATM   20  C   UNL     1      32.305 -11.032 -10.444  1.00  0.00    -0.027 C 
BRANCH  20  21
HETATM   21  C   UNL     1      32.772 -11.797 -11.657  1.00  0.00     0.053 C 
BRANCH  21  22
HETATM   22  C   UNL     1      33.975 -11.131 -12.283  1.00  0.00    -0.027 C 
HETATM   23  C   UNL     1      34.262 -11.035 -13.596  1.00  0.00    -0.031 C 
BRANCH  23  24
HETATM   24  C   UNL     1      33.449 -11.592 -14.736  1.00  0.00     0.022 C 
HETATM   25  C   UNL     1      32.442 -10.587 -15.280  1.00  0.00     0.009 C 
ENDBRANCH  23  24
ENDBRANCH  21  22
ENDBRANCH  20  21
ENDBRANCH  18  19
ENDBRANCH  17  18
ENDBRANCH  15  16
ENDBRANCH  14  15
ENDBRANCH  12  13
ENDBRANCH  11  12
ENDBRANCH   9  10
ENDBRANCH   8   9
ENDBRANCH   6   7
ENDBRANCH   5   6
ENDBRANCH   3   5
ENDBRANCH   1   3
TORSDOF 15
ENDMDL
MODEL 10
REMARK VINA RESULT:      -4.6     24.674     26.845
REMARK  15 active torsions:
REMARK  status: ('A' for Active; 'I' for Inactive)
REMARK    1  A    between atoms: O_1  and  C_23 
REMARK    2  A    between atoms: C_3  and  C_7 
REMARK    3  A    between atoms: C_3  and  C_8 
REMARK    4  A    between atoms: C_4  and  C_10 
REMARK    5  A    between atoms: C_4  and  C_11 
REMARK    6  A    between atoms: C_5  and  C_12 
REMARK    7  A    between atoms: C_5  and  C_13 
REMARK    8  A    between atoms: C_6  and  C_15 
REMARK    9  A    between atoms: C_6  and  C_16 
REMARK   10  A    between atoms: C_7  and  C_23 
REMARK   11  A    between atoms: C_9  and  C_17 
REMARK   12  A    between atoms: C_9  and  C_18 
REMARK   13  A    between atoms: C_14  and  C_19 
REMARK   14  A    between atoms: C_14  and  C_20 
REMARK   15  A    between atoms: C_21  and  C_22 
ROOT
HETATM    1  O   UNL     1      41.648  12.608 -18.803  1.00  0.00    -0.776 OA
HETATM    2  H   UNL     1      41.134  13.115 -19.447  1.00  0.00     0.167 HD
ENDROOT
BRANCH   1   3
HETATM    3  C   UNL     1      42.031  11.337 -19.051  1.00  0.00     0.139 C 
HETATM    4  O   UNL     1      43.173  10.981 -18.796  1.00  0.00    -0.650 OA
BRANCH   3   5
HETATM    5  C   UNL     1      41.050  10.363 -19.637  1.00  0.00     0.113 C 
BRANCH   5   6
HETATM    6  C   UNL     1      40.816   9.183 -18.687  1.00  0.00     0.037 C 
BRANCH   6   7
HETATM    7  C   UNL     1      40.690   7.893 -19.462  1.00  0.00    -0.030 C 
HETATM    8  C   UNL     1      39.558   7.354 -19.963  1.00  0.00    -0.027 C 
BRANCH   8   9
HETATM    9  C   UNL     1      38.153   7.910 -19.871  1.00  0.00     0.053 C 
BRANCH   9  10
HETATM   10  C   UNL     1      37.873   8.852 -21.014  1.00  0.00    -0.027 C 
HETATM   11  C   UNL     1      37.147   9.983 -20.940  1.00  0.00    -0.027 C 
BRANCH  11  12
HETATM   12  C   UNL     1      36.531  10.545 -19.686  1.00  0.00     0.053 C 
BRANCH  12  13
HETATM   13  C   UNL     1      37.554  11.300 -18.874  1.00  0.00    -0.027 C 
HETATM   14  C   UNL     1      37.910  11.052 -17.600  1.00  0.00    -0.027 C 
BRANCH  14  15
HETATM   15  C   UNL     1      37.320   9.997 -16.703  1.00  0.00     0.053 C 
BRANCH  15  16
HETATM   16  C   UNL     1      36.388  10.668 -15.719  1.00  0.00    -0.027 C 
HETATM   17  C   UNL     1      36.549  10.808 -14.388  1.00  0.00    -0.027 C 
BRANCH  17  18
HETATM   18  C   UNL     1      37.717  10.341 -13.559  1.00  0.00     0.053 C 
BRANCH  18  19
HETATM   19  C   UNL     1      38.848  11.341 -13.620  1.00  0.00    -0.027 C 
HETATM   20  C   UNL     1      40.046  11.191 -14.221  1.00  0.00    -0.027 C 
BRANCH  20  21
HETATM   21  C   UNL     1      40.518  10.004 -15.023  1.00  0.00     0.053 C 
BRANCH  21  22
HETATM   22  C   UNL     1      40.882   8.851 -14.116  1.00  0.00    -0.027 C 
HETATM   23  C   UNL     1      40.246   7.669 -14.007  1.00  0.00    -0.031 C 
BRANCH  23  24
HETATM   24  C   UNL     1      39.011   7.241 -14.758  1.00  0.00     0.022 C 
HETATM   25  C   UNL     1      39.307   6.877 -16.207  1.00  0.00     0.009 C 
ENDBRANCH  23  24
ENDBRANCH  21  22
ENDBRANCH  20  21
ENDBRANCH  18  19
ENDBRANCH  17  18
ENDBRANCH  15  16
ENDBRANCH  14  15
ENDBRANCH  12  13
ENDBRANCH  11  12
ENDBRANCH   9  10
ENDBRANCH   8   9
ENDBRANCH   6   7
ENDBRANCH   5   6
ENDBRANCH   3   5
ENDBRANCH   1   3
TORSDOF 15
ENDMDL
MODEL 11
REMARK VINA RESULT:      -4.5      2.370      4.112
REMARK  15 active torsions:
REMARK  status: ('A' for Active; 'I' for Inactive)
REMARK    1  A    between atoms: O_1  and  C_23 
REMARK    2  A    between atoms: C_3  and  C_7 
REMARK    3  A    between atoms: C_3  and  C_8 
REMARK    4  A    between atoms: C_4  and  C_10 
REMARK    5  A    between atoms: C_4  and  C_11 
REMARK    6  A    between atoms: C_5  and  C_12 
REMARK    7  A    between atoms: C_5  and  C_13 
REMARK    8  A    between atoms: C_6  and  C_15 
REMARK    9  A    between atoms: C_6  and  C_16 
REMARK   10  A    between atoms: C_7  and  C_23 
REMARK   11  A    between atoms: C_9  and  C_17 
REMARK   12  A    between atoms: C_9  and  C_18 
REMARK   13  A    between atoms: C_14  and  C_19 
REMARK   14  A    between atoms: C_14  and  C_20 
REMARK   15  A    between atoms: C_21  and  C_22 
ROOT
HETATM    1  O   UNL     1      32.647 -20.206 -19.144  1.00  0.00    -0.776 OA
HETATM    2  H   UNL     1      33.214 -19.493 -19.469  1.00  0.00     0.167 HD
ENDROOT
BRANCH   1   3
HETATM    3  C   UNL     1      31.441 -20.455 -19.699  1.00  0.00     0.139 C 
HETATM    4  O   UNL     1      31.357 -20.717 -20.890  1.00  0.00    -0.650 OA
BRANCH   3   5
HETATM    5  C   UNL     1      30.204 -20.410 -18.846  1.00  0.00     0.113 C 
BRANCH   5   6
HETATM    6  C   UNL     1      29.815 -18.964 -18.522  1.00  0.00     0.037 C 
BRANCH   6   7
HETATM    7  C   UNL     1      30.293 -18.581 -17.142  1.00  0.00    -0.030 C 
HETATM    8  C   UNL     1      30.816 -17.395 -16.763  1.00  0.00    -0.027 C 
BRANCH   8   9
HETATM    9  C   UNL     1      31.048 -16.173 -17.626  1.00  0.00     0.053 C 
BRANCH   9  10
HETATM   10  C   UNL     1      32.273 -16.349 -18.488  1.00  0.00    -0.027 C 
HETATM   11  C   UNL     1      33.331 -15.519 -18.528  1.00  0.00    -0.027 C 
BRANCH  11  12
HETATM   12  C   UNL     1      33.511 -14.291 -17.676  1.00  0.00     0.053 C 
BRANCH  12  13
HETATM   13  C   UNL     1      34.299 -14.611 -16.430  1.00  0.00    -0.027 C 
HETATM   14  C   UNL     1      33.838 -14.604 -15.165  1.00  0.00    -0.027 C 
BRANCH  14  15
HETATM   15  C   UNL     1      32.448 -14.226 -14.729  1.00  0.00     0.053 C 
BRANCH  15  16
HETATM   16  C   UNL     1      31.857 -15.380 -13.950  1.00  0.00    -0.027 C 
HETATM   17  C   UNL     1      30.579 -15.544 -13.552  1.00  0.00    -0.027 C 
BRANCH  17  18
HETATM   18  C   UNL     1      29.421 -14.616 -13.809  1.00  0.00     0.053 C 
BRANCH  18  19
HETATM   19  C   UNL     1      28.598 -15.101 -14.979  1.00  0.00    -0.027 C 
HETATM   20  C   UNL     1      28.162 -14.380 -16.032  1.00  0.00    -0.027 C 
BRANCH  20  21
HETATM   21  C   UNL     1      28.443 -12.925 -16.316  1.00  0.00     0.053 C 
BRANCH  21  22
HETATM   22  C   UNL     1      29.887 -12.723 -16.711  1.00  0.00    -0.027 C 
HETATM   23  C   UNL     1      30.369 -12.495 -17.949  1.00  0.00    -0.031 C 
BRANCH  23  24
HETATM   24  C   UNL     1      29.569 -12.410 -19.222  1.00  0.00     0.022 C 
HETATM   25  C   UNL     1      29.410 -13.764 -19.902  1.00  0.00     0.009 C 
ENDBRANCH  23  24
ENDBRANCH  21  22
ENDBRANCH  20  21
ENDBRANCH  18  19
ENDBRANCH  17  18
ENDBRANCH  15  16
ENDBRANCH  14  15
ENDBRANCH  12  13
ENDBRANCH  11  12
ENDBRANCH   9  10
ENDBRANCH   8   9
ENDBRANCH   6   7
ENDBRANCH   5   6
ENDBRANCH   3   5
ENDBRANCH   1   3
TORSDOF 15
ENDMDL
MODEL 12
REMARK VINA RESULT:      -4.5     24.743     27.286
REMARK  15 active torsions:
REMARK  status: ('A' for Active; 'I' for Inactive)
REMARK    1  A    between atoms: O_1  and  C_23 
REMARK    2  A    between atoms: C_3  and  C_7 
REMARK    3  A    between atoms: C_3  and  C_8 
REMARK    4  A    between atoms: C_4  and  C_10 
REMARK    5  A    between atoms: C_4  and  C_11 
REMARK    6  A    between atoms: C_5  and  C_12 
REMARK    7  A    between atoms: C_5  and  C_13 
REMARK    8  A    between atoms: C_6  and  C_15 
REMARK    9  A    between atoms: C_6  and  C_16 
REMARK   10  A    between atoms: C_7  and  C_23 
REMARK   11  A    between atoms: C_9  and  C_17 
REMARK   12  A    between atoms: C_9  and  C_18 
REMARK   13  A    between atoms: C_14  and  C_19 
REMARK   14  A    between atoms: C_14  and  C_20 
REMARK   15  A    between atoms: C_21  and  C_22 
ROOT
HETATM    1  O   UNL     1      41.436  13.249 -10.475  1.00  0.00    -0.776 OA
HETATM    2  H   UNL     1      41.699  13.606 -11.335  1.00  0.00     0.167 HD
ENDROOT
BRANCH   1   3
HETATM    3  C   UNL     1      41.810  12.012 -10.083  1.00  0.00     0.139 C 
HETATM    4  O   UNL     1      42.983  11.779  -9.829  1.00  0.00    -0.650 OA
BRANCH   3   5
HETATM    5  C   UNL     1      40.780  10.926  -9.956  1.00  0.00     0.113 C 
BRANCH   5   6
HETATM    6  C   UNL     1      41.413   9.630  -9.437  1.00  0.00     0.037 C 
BRANCH   6   7
HETATM    7  C   UNL     1      40.867   9.281  -8.073  1.00  0.00    -0.030 C 
HETATM    8  C   UNL     1      39.995   8.294  -7.775  1.00  0.00    -0.027 C 
BRANCH   8   9
HETATM    9  C   UNL     1      39.359   7.307  -8.731  1.00  0.00     0.053 C 
BRANCH   9  10
HETATM   10  C   UNL     1      38.377   7.999  -9.641  1.00  0.00    -0.027 C 
HETATM   11  C   UNL     1      38.340   7.894 -10.982  1.00  0.00    -0.027 C 
BRANCH  11  12
HETATM   12  C   UNL     1      39.239   7.018 -11.815  1.00  0.00     0.053 C 
BRANCH  12  13
HETATM   13  C   UNL     1      40.038   7.843 -12.793  1.00  0.00    -0.027 C 
HETATM   14  C   UNL     1      39.811   7.963 -14.115  1.00  0.00    -0.027 C 
BRANCH  14  15
HETATM   15  C   UNL     1      38.737   7.257 -14.899  1.00  0.00     0.053 C 
BRANCH  15  16
HETATM   16  C   UNL     1      39.309   6.849 -16.238  1.00  0.00    -0.027 C 
HETATM   17  C   UNL     1      39.591   7.638 -17.294  1.00  0.00    -0.027 C 
BRANCH  17  18
HETATM   18  C   UNL     1      39.418   9.132 -17.384  1.00  0.00     0.053 C 
BRANCH  18  19
HETATM   19  C   UNL     1      37.991   9.484 -17.733  1.00  0.00    -0.027 C 
HETATM   20  C   UNL     1      37.159  10.303 -17.058  1.00  0.00    -0.027 C 
BRANCH  20  21
HETATM   21  C   UNL     1      37.479  11.107 -15.822  1.00  0.00     0.053 C 
BRANCH  21  22
HETATM   22  C   UNL     1      36.871  10.469 -14.594  1.00  0.00    -0.027 C 
HETATM   23  C   UNL     1      37.338  10.522 -13.331  1.00  0.00    -0.031 C 
BRANCH  23  24
HETATM   24  C   UNL     1      38.590  11.220 -12.867  1.00  0.00     0.022 C 
HETATM   25  C   UNL     1      38.358  12.694 -12.563  1.00  0.00     0.009 C 
ENDBRANCH  23  24
ENDBRANCH  21  22
ENDBRANCH  20  21
ENDBRANCH  18  19
ENDBRANCH  17  18
ENDBRANCH  15  16
ENDBRANCH  14  15
ENDBRANCH  12  13
ENDBRANCH  11  12
ENDBRANCH   9  10
ENDBRANCH   8   9
ENDBRANCH   6   7
ENDBRANCH   5   6
ENDBRANCH   3   5
ENDBRANCH   1   3
TORSDOF 15
ENDMDL
MODEL 13
REMARK VINA RESULT:      -4.5      7.922     11.043
REMARK  15 active torsions:
REMARK  status: ('A' for Active; 'I' for Inactive)
REMARK    1  A    between atoms: O_1  and  C_23 
REMARK    2  A    between atoms: C_3  and  C_7 
REMARK    3  A    between atoms: C_3  and  C_8 
REMARK    4  A    between atoms: C_4  and  C_10 
REMARK    5  A    between atoms: C_4  and  C_11 
REMARK    6  A    between atoms: C_5  and  C_12 
REMARK    7  A    between atoms: C_5  and  C_13 
REMARK    8  A    between atoms: C_6  and  C_15 
REMARK    9  A    between atoms: C_6  and  C_16 
REMARK   10  A    between atoms: C_7  and  C_23 
REMARK   11  A    between atoms: C_9  and  C_17 
REMARK   12  A    between atoms: C_9  and  C_18 
REMARK   13  A    between atoms: C_14  and  C_19 
REMARK   14  A    between atoms: C_14  and  C_20 
REMARK   15  A    between atoms: C_21  and  C_22 
ROOT
HETATM    1  O   UNL     1      32.121 -20.990  -5.015  1.00  0.00    -0.776 OA
HETATM    2  H   UNL     1      32.201 -21.002  -4.051  1.00  0.00     0.167 HD
ENDROOT
BRANCH   1   3
HETATM    3  C   UNL     1      31.058 -20.425  -5.626  1.00  0.00     0.139 C 
HETATM    4  O   UNL     1      30.629 -20.897  -6.669  1.00  0.00    -0.650 OA
BRANCH   3   5
HETATM    5  C   UNL     1      30.404 -19.217  -5.019  1.00  0.00     0.113 C 
BRANCH   5   6
HETATM    6  C   UNL     1      31.216 -18.695  -3.828  1.00  0.00     0.037 C 
BRANCH   6   7
HETATM    7  C   UNL     1      30.309 -18.052  -2.806  1.00  0.00    -0.030 C 
HETATM    8  C   UNL     1      29.925 -16.759  -2.760  1.00  0.00    -0.027 C 
BRANCH   8   9
HETATM    9  C   UNL     1      30.308 -15.649  -3.715  1.00  0.00     0.053 C 
BRANCH   9  10
HETATM   10  C   UNL     1      29.381 -15.620  -4.903  1.00  0.00    -0.027 C 
HETATM   11  C   UNL     1      29.758 -15.608  -6.194  1.00  0.00    -0.027 C 
BRANCH  11  12
HETATM   12  C   UNL     1      31.179 -15.681  -6.691  1.00  0.00     0.053 C 
BRANCH  12  13
HETATM   13  C   UNL     1      31.842 -14.328  -6.624  1.00  0.00    -0.027 C 
HETATM   14  C   UNL     1      32.174 -13.544  -7.667  1.00  0.00    -0.027 C 
BRANCH  14  15
HETATM   15  C   UNL     1      31.993 -13.882  -9.123  1.00  0.00     0.053 C 
BRANCH  15  16
HETATM   16  C   UNL     1      30.871 -13.032  -9.678  1.00  0.00    -0.027 C 
HETATM   17  C   UNL     1      29.610 -13.410  -9.966  1.00  0.00    -0.027 C 
BRANCH  17  18
HETATM   18  C   UNL     1      29.006 -14.777  -9.783  1.00  0.00     0.053 C 
BRANCH  18  19
HETATM   19  C   UNL     1      29.308 -15.657 -10.974  1.00  0.00    -0.027 C 
HETATM   20  C   UNL     1      30.087 -16.757 -11.005  1.00  0.00    -0.027 C 
BRANCH  20  21
HETATM   21  C   UNL     1      30.799 -17.402  -9.841  1.00  0.00     0.053 C 
BRANCH  21  22
HETATM   22  C   UNL     1      30.027 -18.598  -9.335  1.00  0.00    -0.027 C 
HETATM   23  C   UNL     1      30.222 -19.891  -9.661  1.00  0.00    -0.031 C 
BRANCH  23  24
HETATM   24  C   UNL     1      31.247 -20.428 -10.625  1.00  0.00     0.022 C 
HETATM   25  C   UNL     1      30.831 -20.248 -12.079  1.00  0.00     0.009 C 
ENDBRANCH  23  24
ENDBRANCH  21  22
ENDBRANCH  20  21
ENDBRANCH  18  19
ENDBRANCH  17  18
ENDBRANCH  15  16
ENDBRANCH  14  15
ENDBRANCH  12  13
ENDBRANCH  11  12
ENDBRANCH   9  10
ENDBRANCH   8   9
ENDBRANCH   6   7
ENDBRANCH   5   6
ENDBRANCH   3   5
ENDBRANCH   1   3
TORSDOF 15
ENDMDL
MODEL 14
REMARK VINA RESULT:      -4.5     24.461     27.101
REMARK  15 active torsions:
REMARK  status: ('A' for Active; 'I' for Inactive)
REMARK    1  A    between atoms: O_1  and  C_23 
REMARK    2  A    between atoms: C_3  and  C_7 
REMARK    3  A    between atoms: C_3  and  C_8 
REMARK    4  A    between atoms: C_4  and  C_10 
REMARK    5  A    between atoms: C_4  and  C_11 
REMARK    6  A    between atoms: C_5  and  C_12 
REMARK    7  A    between atoms: C_5  and  C_13 
REMARK    8  A    between atoms: C_6  and  C_15 
REMARK    9  A    between atoms: C_6  and  C_16 
REMARK   10  A    between atoms: C_7  and  C_23 
REMARK   11  A    between atoms: C_9  and  C_17 
REMARK   12  A    between atoms: C_9  and  C_18 
REMARK   13  A    between atoms: C_14  and  C_19 
REMARK   14  A    between atoms: C_14  and  C_20 
REMARK   15  A    between atoms: C_21  and  C_22 
ROOT
HETATM    1  O   UNL     1      42.354  10.122 -18.804  1.00  0.00    -0.776 OA
HETATM    2  H   UNL     1      42.373  11.070 -18.999  1.00  0.00     0.167 HD
ENDROOT
BRANCH   1   3
HETATM    3  C   UNL     1      41.222   9.399 -18.937  1.00  0.00     0.139 C 
HETATM    4  O   UNL     1      40.874   9.003 -20.040  1.00  0.00    -0.650 OA
BRANCH   3   5
HETATM    5  C   UNL     1      40.395   9.080 -17.724  1.00  0.00     0.113 C 
BRANCH   5   6
HETATM    6  C   UNL     1      39.713  10.340 -17.179  1.00  0.00     0.037 C 
BRANCH   6   7
HETATM    7  C   UNL     1      38.221  10.276 -17.399  1.00  0.00    -0.030 C 
HETATM    8  C   UNL     1      37.299   9.751 -16.564  1.00  0.00    -0.027 C 
BRANCH   8   9
HETATM    9  C   UNL     1      37.538   9.106 -15.216  1.00  0.00     0.053 C 
BRANCH   9  10
HETATM   10  C   UNL     1      37.893   7.649 -15.374  1.00  0.00    -0.027 C 
HETATM   11  C   UNL     1      38.879   7.005 -14.723  1.00  0.00    -0.027 C 
BRANCH  11  12
HETATM   12  C   UNL     1      39.772   7.611 -13.672  1.00  0.00     0.053 C 
BRANCH  12  13
HETATM   13  C   UNL     1      39.407   7.103 -12.298  1.00  0.00    -0.027 C 
HETATM   14  C   UNL     1      38.814   7.805 -11.315  1.00  0.00    -0.027 C 
BRANCH  14  15
HETATM   15  C   UNL     1      38.435   9.261 -11.368  1.00  0.00     0.053 C 
BRANCH  15  16
HETATM   16  C   UNL     1      37.277   9.492 -10.423  1.00  0.00    -0.027 C 
HETATM   17  C   UNL     1      37.288  10.140  -9.241  1.00  0.00    -0.027 C 
BRANCH  17  18
HETATM   18  C   UNL     1      38.465  10.812  -8.584  1.00  0.00     0.053 C 
BRANCH  18  19
HETATM   19  C   UNL     1      39.087   9.905  -7.548  1.00  0.00    -0.027 C 
HETATM   20  C   UNL     1      40.196   9.148  -7.679  1.00  0.00    -0.027 C 
BRANCH  20  21
HETATM   21  C   UNL     1      41.109   9.072  -8.878  1.00  0.00     0.053 C 
BRANCH  21  22
HETATM   22  C   UNL     1      42.101  10.212  -8.871  1.00  0.00    -0.027 C 
HETATM   23  C   UNL     1      42.164  11.243  -9.736  1.00  0.00    -0.031 C 
BRANCH  23  24
HETATM   24  C   UNL     1      41.262  11.476 -10.921  1.00  0.00     0.022 C 
HETATM   25  C   UNL     1      41.768  10.789 -12.182  1.00  0.00     0.009 C 
ENDBRANCH  23  24
ENDBRANCH  21  22
ENDBRANCH  20  21
ENDBRANCH  18  19
ENDBRANCH  17  18
ENDBRANCH  15  16
ENDBRANCH  14  15
ENDBRANCH  12  13
ENDBRANCH  11  12
ENDBRANCH   9  10
ENDBRANCH   8   9
ENDBRANCH   6   7
ENDBRANCH   5   6
ENDBRANCH   3   5
ENDBRANCH   1   3
TORSDOF 15
ENDMDL
MODEL 15
REMARK VINA RESULT:      -4.5     24.454     27.297
REMARK  15 active torsions:
REMARK  status: ('A' for Active; 'I' for Inactive)
REMARK    1  A    between atoms: O_1  and  C_23 
REMARK    2  A    between atoms: C_3  and  C_7 
REMARK    3  A    between atoms: C_3  and  C_8 
REMARK    4  A    between atoms: C_4  and  C_10 
REMARK    5  A    between atoms: C_4  and  C_11 
REMARK    6  A    between atoms: C_5  and  C_12 
REMARK    7  A    between atoms: C_5  and  C_13 
REMARK    8  A    between atoms: C_6  and  C_15 
REMARK    9  A    between atoms: C_6  and  C_16 
REMARK   10  A    between atoms: C_7  and  C_23 
REMARK   11  A    between atoms: C_9  and  C_17 
REMARK   12  A    between atoms: C_9  and  C_18 
REMARK   13  A    between atoms: C_14  and  C_19 
REMARK   14  A    between atoms: C_14  and  C_20 
REMARK   15  A    between atoms: C_21  and  C_22 
ROOT
HETATM    1  O   UNL     1      38.232   8.342 -19.465  1.00  0.00    -0.776 OA
HETATM    2  H   UNL     1      37.692   8.784 -20.136  1.00  0.00     0.167 HD
ENDROOT
BRANCH   1   3
HETATM    3  C   UNL     1      39.283   8.962 -18.888  1.00  0.00     0.139 C 
HETATM    4  O   UNL     1      39.538  10.125 -19.167  1.00  0.00    -0.650 OA
BRANCH   3   5
HETATM    5  C   UNL     1      40.136   8.220 -17.899  1.00  0.00     0.113 C 
BRANCH   5   6
HETATM    6  C   UNL     1      39.284   7.277 -17.041  1.00  0.00     0.037 C 
BRANCH   6   7
HETATM    7  C   UNL     1      38.343   8.064 -16.160  1.00  0.00    -0.030 C 
HETATM    8  C   UNL     1      38.255   8.010 -14.814  1.00  0.00    -0.027 C 
BRANCH   8   9
HETATM    9  C   UNL     1      39.072   7.154 -13.870  1.00  0.00     0.053 C 
BRANCH   9  10
HETATM   10  C   UNL     1      39.679   7.993 -12.774  1.00  0.00    -0.027 C 
HETATM   11  C   UNL     1      40.773   8.767 -12.891  1.00  0.00    -0.027 C 
BRANCH  11  12
HETATM   12  C   UNL     1      41.560   8.981 -14.157  1.00  0.00     0.053 C 
BRANCH  12  13
HETATM   13  C   UNL     1      41.328  10.366 -14.708  1.00  0.00    -0.027 C 
HETATM   14  C   UNL     1      41.899  11.507 -14.278  1.00  0.00    -0.027 C 
BRANCH  14  15
HETATM   15  C   UNL     1      42.853  11.640 -13.121  1.00  0.00     0.053 C 
BRANCH  15  16
HETATM   16  C   UNL     1      42.333  12.712 -12.189  1.00  0.00    -0.027 C 
HETATM   17  C   UNL     1      41.510  12.563 -11.132  1.00  0.00    -0.027 C 
BRANCH  17  18
HETATM   18  C   UNL     1      40.922  11.278 -10.612  1.00  0.00     0.053 C 
BRANCH  18  19
HETATM   19  C   UNL     1      41.764  10.724  -9.486  1.00  0.00    -0.027 C 
HETATM   20  C   UNL     1      41.687   9.497  -8.930  1.00  0.00    -0.027 C 
BRANCH  20  21
HETATM   21  C   UNL     1      40.775   8.368  -9.342  1.00  0.00     0.053 C 
BRANCH  21  22
HETATM   22  C   UNL     1      39.634   8.214  -8.364  1.00  0.00    -0.027 C 
HETATM   23  C   UNL     1      38.411   8.774  -8.444  1.00  0.00    -0.031 C 
BRANCH  23  24
HETATM   24  C   UNL     1      37.916   9.698  -9.527  1.00  0.00     0.022 C 
HETATM   25  C   UNL     1      37.132   8.964 -10.607  1.00  0.00     0.009 C 
ENDBRANCH  23  24
ENDBRANCH  21  22
ENDBRANCH  20  21
ENDBRANCH  18  19
ENDBRANCH  17  18
ENDBRANCH  15  16
ENDBRANCH  14  15
ENDBRANCH  12  13
ENDBRANCH  11  12
ENDBRANCH   9  10
ENDBRANCH   8   9
ENDBRANCH   6   7
ENDBRANCH   5   6
ENDBRANCH   3   5
ENDBRANCH   1   3
TORSDOF 15
ENDMDL
MODEL 16
REMARK VINA RESULT:      -4.5     25.104     27.423
REMARK  15 active torsions:
REMARK  status: ('A' for Active; 'I' for Inactive)
REMARK    1  A    between atoms: O_1  and  C_23 
REMARK    2  A    between atoms: C_3  and  C_7 
REMARK    3  A    between atoms: C_3  and  C_8 
REMARK    4  A    between atoms: C_4  and  C_10 
REMARK    5  A    between atoms: C_4  and  C_11 
REMARK    6  A    between atoms: C_5  and  C_12 
REMARK    7  A    between atoms: C_5  and  C_13 
REMARK    8  A    between atoms: C_6  and  C_15 
REMARK    9  A    between atoms: C_6  and  C_16 
REMARK   10  A    between atoms: C_7  and  C_23 
REMARK   11  A    between atoms: C_9  and  C_17 
REMARK   12  A    between atoms: C_9  and  C_18 
REMARK   13  A    between atoms: C_14  and  C_19 
REMARK   14  A    between atoms: C_14  and  C_20 
REMARK   15  A    between atoms: C_21  and  C_22 
ROOT
HETATM    1  O   UNL     1      42.442  13.250 -13.448  1.00  0.00    -0.776 OA
HETATM    2  H   UNL     1      42.230  14.012 -12.891  1.00  0.00     0.167 HD
ENDROOT
BRANCH   1   3
HETATM    3  C   UNL     1      42.632  12.022 -12.919  1.00  0.00     0.139 C 
HETATM    4  O   UNL     1      42.819  11.896 -11.717  1.00  0.00    -0.650 OA
BRANCH   3   5
HETATM    5  C   UNL     1      42.609  10.813 -13.810  1.00  0.00     0.113 C 
BRANCH   5   6
HETATM    6  C   UNL     1      41.175  10.314 -14.018  1.00  0.00     0.037 C 
BRANCH   6   7
HETATM    7  C   UNL     1      41.013   8.916 -13.469  1.00  0.00    -0.030 C 
HETATM    8  C   UNL     1      40.415   7.870 -14.075  1.00  0.00    -0.027 C 
BRANCH   8   9
HETATM    9  C   UNL     1      39.766   7.844 -15.443  1.00  0.00     0.053 C 
BRANCH   9  10
HETATM   10  C   UNL     1      38.274   7.661 -15.326  1.00  0.00    -0.027 C 
HETATM   11  C   UNL     1      37.375   8.643 -15.134  1.00  0.00    -0.027 C 
BRANCH  11  12
HETATM   12  C   UNL     1      37.690  10.115 -15.059  1.00  0.00     0.053 C 
BRANCH  12  13
HETATM   13  C   UNL     1      36.749  10.819 -14.112  1.00  0.00    -0.027 C 
HETATM   14  C   UNL     1      36.907  10.963 -12.783  1.00  0.00    -0.027 C 
BRANCH  14  15
HETATM   15  C   UNL     1      38.036  10.405 -11.958  1.00  0.00     0.053 C 
BRANCH  15  16
HETATM   16  C   UNL     1      37.675   8.998 -11.538  1.00  0.00    -0.027 C 
HETATM   17  C   UNL     1      38.376   8.164 -10.744  1.00  0.00    -0.027 C 
BRANCH  17  18
HETATM   18  C   UNL     1      39.690   8.446 -10.064  1.00  0.00     0.053 C 
BRANCH  18  19
HETATM   19  C   UNL     1      39.957   7.432  -8.976  1.00  0.00    -0.027 C 
HETATM   20  C   UNL     1      39.492   7.445  -7.710  1.00  0.00    -0.027 C 
BRANCH  20  21
HETATM   21  C   UNL     1      38.549   8.450  -7.098  1.00  0.00     0.053 C 
BRANCH  21  22
HETATM   22  C   UNL     1      39.303   9.455  -6.258  1.00  0.00    -0.027 C 
HETATM   23  C   UNL     1      40.123   9.197  -5.220  1.00  0.00    -0.031 C 
BRANCH  23  24
HETATM   24  C   UNL     1      40.453   7.842  -4.652  1.00  0.00     0.022 C 
HETATM   25  C   UNL     1      39.627   7.510  -3.416  1.00  0.00     0.009 C 
ENDBRANCH  23  24
ENDBRANCH  21  22
ENDBRANCH  20  21
ENDBRANCH  18  19
ENDBRANCH  17  18
ENDBRANCH  15  16
ENDBRANCH  14  15
ENDBRANCH  12  13
ENDBRANCH  11  12
ENDBRANCH   9  10
ENDBRANCH   8   9
ENDBRANCH   6   7
ENDBRANCH   5   6
ENDBRANCH   3   5
ENDBRANCH   1   3
TORSDOF 15
ENDMDL
MODEL 17
REMARK VINA RESULT:      -4.4      8.959     11.491
REMARK  15 active torsions:
REMARK  status: ('A' for Active; 'I' for Inactive)
REMARK    1  A    between atoms: O_1  and  C_23 
REMARK    2  A    between atoms: C_3  and  C_7 
REMARK    3  A    between atoms: C_3  and  C_8 
REMARK    4  A    between atoms: C_4  and  C_10 
REMARK    5  A    between atoms: C_4  and  C_11 
REMARK    6  A    between atoms: C_5  and  C_12 
REMARK    7  A    between atoms: C_5  and  C_13 
REMARK    8  A    between atoms: C_6  and  C_15 
REMARK    9  A    between atoms: C_6  and  C_16 
REMARK   10  A    between atoms: C_7  and  C_23 
REMARK   11  A    between atoms: C_9  and  C_17 
REMARK   12  A    between atoms: C_9  and  C_18 
REMARK   13  A    between atoms: C_14  and  C_19 
REMARK   14  A    between atoms: C_14  and  C_20 
REMARK   15  A    between atoms: C_21  and  C_22 
ROOT
HETATM    1  O   UNL     1      31.556 -21.200  -5.330  1.00  0.00    -0.776 OA
HETATM    2  H   UNL     1      31.285 -22.040  -5.726  1.00  0.00     0.167 HD
ENDROOT
BRANCH   1   3
HETATM    3  C   UNL     1      30.654 -20.357  -4.783  1.00  0.00     0.139 C 
HETATM    4  O   UNL     1      29.867 -20.763  -3.941  1.00  0.00    -0.650 OA
BRANCH   3   5
HETATM    5  C   UNL     1      30.625 -18.917  -5.212  1.00  0.00     0.113 C 
BRANCH   5   6
HETATM    6  C   UNL     1      29.988 -18.037  -4.130  1.00  0.00     0.037 C 
BRANCH   6   7
HETATM    7  C   UNL     1      31.053 -17.361  -3.299  1.00  0.00    -0.030 C 
HETATM    8  C   UNL     1      31.371 -16.050  -3.298  1.00  0.00    -0.027 C 
BRANCH   8   9
HETATM    9  C   UNL     1      30.742 -14.948  -4.124  1.00  0.00     0.053 C 
BRANCH   9  10
HETATM   10  C   UNL     1      29.915 -14.033  -3.258  1.00  0.00    -0.027 C 
HETATM   11  C   UNL     1      29.200 -12.977  -3.688  1.00  0.00    -0.027 C 
BRANCH  11  12
HETATM   12  C   UNL     1      29.049 -12.552  -5.125  1.00  0.00     0.053 C 
BRANCH  12  13
HETATM   13  C   UNL     1      27.857 -13.223  -5.762  1.00  0.00    -0.027 C 
HETATM   14  C   UNL     1      27.858 -13.959  -6.889  1.00  0.00    -0.027 C 
BRANCH  14  15
HETATM   15  C   UNL     1      29.047 -14.224  -7.775  1.00  0.00     0.053 C 
BRANCH  15  16
HETATM   16  C   UNL     1      29.601 -15.591  -7.440  1.00  0.00    -0.027 C 
HETATM   17  C   UNL     1      30.858 -16.043  -7.622  1.00  0.00    -0.027 C 
BRANCH  17  18
HETATM   18  C   UNL     1      32.026 -15.280  -8.189  1.00  0.00     0.053 C 
BRANCH  18  19
HETATM   19  C   UNL     1      32.848 -14.663  -7.082  1.00  0.00    -0.027 C 
HETATM   20  C   UNL     1      32.877 -13.368  -6.705  1.00  0.00    -0.027 C 
BRANCH  20  21
HETATM   21  C   UNL     1      32.051 -12.238  -7.267  1.00  0.00     0.053 C 
BRANCH  21  22
HETATM   22  C   UNL     1      32.762 -11.576  -8.424  1.00  0.00    -0.027 C 
HETATM   23  C   UNL     1      32.263 -11.322  -9.649  1.00  0.00    -0.031 C 
BRANCH  23  24
HETATM   24  C   UNL     1      30.881 -11.661 -10.144  1.00  0.00     0.022 C 
HETATM   25  C   UNL     1      30.833 -13.003 -10.864  1.00  0.00     0.009 C 
ENDBRANCH  23  24
ENDBRANCH  21  22
ENDBRANCH  20  21
ENDBRANCH  18  19
ENDBRANCH  17  18
ENDBRANCH  15  16
ENDBRANCH  14  15
ENDBRANCH  12  13
ENDBRANCH  11  12
ENDBRANCH   9  10
ENDBRANCH   8   9
ENDBRANCH   6   7
ENDBRANCH   5   6
ENDBRANCH   3   5
ENDBRANCH   1   3
TORSDOF 15
ENDMDL
MODEL 18
REMARK VINA RESULT:      -4.4     24.364     26.471
REMARK  15 active torsions:
REMARK  status: ('A' for Active; 'I' for Inactive)
REMARK    1  A    between atoms: O_1  and  C_23 
REMARK    2  A    between atoms: C_3  and  C_7 
REMARK    3  A    between atoms: C_3  and  C_8 
REMARK    4  A    between atoms: C_4  and  C_10 
REMARK    5  A    between atoms: C_4  and  C_11 
REMARK    6  A    between atoms: C_5  and  C_12 
REMARK    7  A    between atoms: C_5  and  C_13 
REMARK    8  A    between atoms: C_6  and  C_15 
REMARK    9  A    between atoms: C_6  and  C_16 
REMARK   10  A    between atoms: C_7  and  C_23 
REMARK   11  A    between atoms: C_9  and  C_17 
REMARK   12  A    between atoms: C_9  and  C_18 
REMARK   13  A    between atoms: C_14  and  C_19 
REMARK   14  A    between atoms: C_14  and  C_20 
REMARK   15  A    between atoms: C_21  and  C_22 
ROOT
HETATM    1  O   UNL     1      39.493   9.543  -2.161  1.00  0.00    -0.776 OA
HETATM    2  H   UNL     1      38.916  10.058  -1.581  1.00  0.00     0.167 HD
ENDROOT
BRANCH   1   3
HETATM    3  C   UNL     1      39.315   8.216  -2.333  1.00  0.00     0.139 C 
HETATM    4  O   UNL     1      38.703   7.566  -1.497  1.00  0.00    -0.650 OA
BRANCH   3   5
HETATM    5  C   UNL     1      39.867   7.541  -3.557  1.00  0.00     0.113 C 
BRANCH   5   6
HETATM    6  C   UNL     1      39.110   7.983  -4.814  1.00  0.00     0.037 C 
BRANCH   6   7
HETATM    7  C   UNL     1      39.182   6.917  -5.881  1.00  0.00    -0.030 C 
HETATM    8  C   UNL     1      39.233   7.107  -7.217  1.00  0.00    -0.027 C 
BRANCH   8   9
HETATM    9  C   UNL     1      39.229   8.426  -7.961  1.00  0.00     0.053 C 
BRANCH   9  10
HETATM   10  C   UNL     1      40.427   8.532  -8.870  1.00  0.00    -0.027 C 
HETATM   11  C   UNL     1      40.474   8.141 -10.157  1.00  0.00    -0.027 C 
BRANCH  11  12
HETATM   12  C   UNL     1      39.318   7.578 -10.942  1.00  0.00     0.053 C 
BRANCH  12  13
HETATM   13  C   UNL     1      38.649   8.654 -11.762  1.00  0.00    -0.027 C 
HETATM   14  C   UNL     1      38.931   8.983 -13.036  1.00  0.00    -0.027 C 
BRANCH  14  15
HETATM   15  C   UNL     1      40.009   8.375 -13.892  1.00  0.00     0.053 C 
BRANCH  15  16
HETATM   16  C   UNL     1      39.452   7.136 -14.559  1.00  0.00    -0.027 C 
HETATM   17  C   UNL     1      38.959   7.019 -15.809  1.00  0.00    -0.027 C 
BRANCH  17  18
HETATM   18  C   UNL     1      38.863   8.099 -16.854  1.00  0.00     0.053 C 
BRANCH  18  19
HETATM   19  C   UNL     1      40.060   8.058 -17.775  1.00  0.00    -0.027 C 
HETATM   20  C   UNL     1      40.108   7.587 -19.038  1.00  0.00    -0.027 C 
BRANCH  20  21
HETATM   21  C   UNL     1      38.960   7.040 -19.849  1.00  0.00     0.053 C 
BRANCH  21  22
HETATM   22  C   UNL     1      39.294   7.042 -21.323  1.00  0.00    -0.027 C 
HETATM   23  C   UNL     1      39.319   8.104 -22.152  1.00  0.00    -0.031 C 
BRANCH  23  24
HETATM   24  C   UNL     1      38.999   9.531 -21.791  1.00  0.00     0.022 C 
HETATM   25  C   UNL     1      37.509   9.836 -21.885  1.00  0.00     0.009 C 
ENDBRANCH  23  24
ENDBRANCH  21  22
ENDBRANCH  20  21
ENDBRANCH  18  19
ENDBRANCH  17  18
ENDBRANCH  15  16
ENDBRANCH  14  15
ENDBRANCH  12  13
ENDBRANCH  11  12
ENDBRANCH   9  10
ENDBRANCH   8   9
ENDBRANCH   6   7
ENDBRANCH   5   6
ENDBRANCH   3   5
ENDBRANCH   1   3
TORSDOF 15
ENDMDL
MODEL 19
REMARK VINA RESULT:      -4.4      5.388      7.525
REMARK  15 active torsions:
REMARK  status: ('A' for Active; 'I' for Inactive)
REMARK    1  A    between atoms: O_1  and  C_23 
REMARK    2  A    between atoms: C_3  and  C_7 
REMARK    3  A    between atoms: C_3  and  C_8 
REMARK    4  A    between atoms: C_4  and  C_10 
REMARK    5  A    between atoms: C_4  and  C_11 
REMARK    6  A    between atoms: C_5  and  C_12 
REMARK    7  A    between atoms: C_5  and  C_13 
REMARK    8  A    between atoms: C_6  and  C_15 
REMARK    9  A    between atoms: C_6  and  C_16 
REMARK   10  A    between atoms: C_7  and  C_23 
REMARK   11  A    between atoms: C_9  and  C_17 
REMARK   12  A    between atoms: C_9  and  C_18 
REMARK   13  A    between atoms: C_14  and  C_19 
REMARK   14  A    between atoms: C_14  and  C_20 
REMARK   15  A    between atoms: C_21  and  C_22 
ROOT
HETATM    1  O   UNL     1      31.728 -21.340 -15.017  1.00  0.00    -0.776 OA
HETATM    2  H   UNL     1      32.173 -22.084 -15.445  1.00  0.00     0.167 HD
ENDROOT
BRANCH   1   3
HETATM    3  C   UNL     1      31.001 -20.451 -15.727  1.00  0.00     0.139 C 
HETATM    4  O   UNL     1      30.675 -20.707 -16.877  1.00  0.00    -0.650 OA
BRANCH   3   5
HETATM    5  C   UNL     1      30.593 -19.149 -15.098  1.00  0.00     0.113 C 
BRANCH   5   6
HETATM    6  C   UNL     1      31.114 -19.049 -13.660  1.00  0.00     0.037 C 
BRANCH   6   7
HETATM    7  C   UNL     1      30.123 -18.321 -12.784  1.00  0.00    -0.030 C 
HETATM    8  C   UNL     1      30.260 -17.087 -12.254  1.00  0.00    -0.027 C 
BRANCH   8   9
HETATM    9  C   UNL     1      31.433 -16.142 -12.410  1.00  0.00     0.053 C 
BRANCH   9  10
HETATM   10  C   UNL     1      31.293 -15.315 -13.662  1.00  0.00    -0.027 C 
HETATM   11  C   UNL     1      30.994 -14.004 -13.708  1.00  0.00    -0.027 C 
BRANCH  11  12
HETATM   12  C   UNL     1      30.801 -13.109 -12.512  1.00  0.00     0.053 C 
BRANCH  12  13
HETATM   13  C   UNL     1      29.408 -12.530 -12.492  1.00  0.00    -0.027 C 
HETATM   14  C   UNL     1      28.314 -13.089 -11.944  1.00  0.00    -0.027 C 
BRANCH  14  15
HETATM   15  C   UNL     1      28.246 -14.438 -11.277  1.00  0.00     0.053 C 
BRANCH  15  16
HETATM   16  C   UNL     1      28.075 -14.230  -9.788  1.00  0.00    -0.027 C 
HETATM   17  C   UNL     1      29.037 -14.140  -8.848  1.00  0.00    -0.027 C 
BRANCH  17  18
HETATM   18  C   UNL     1      30.526 -14.206  -9.062  1.00  0.00     0.053 C 
BRANCH  18  19
HETATM   19  C   UNL     1      31.145 -12.833  -8.935  1.00  0.00    -0.027 C 
HETATM   20  C   UNL     1      31.619 -12.246  -7.817  1.00  0.00    -0.027 C 
BRANCH  20  21
HETATM   21  C   UNL     1      31.694 -12.848  -6.436  1.00  0.00     0.053 C 
BRANCH  21  22
HETATM   22  C   UNL     1      31.137 -11.896  -5.403  1.00  0.00    -0.027 C 
HETATM   23  C   UNL     1      29.845 -11.563  -5.216  1.00  0.00    -0.031 C 
BRANCH  23  24
HETATM   24  C   UNL     1      28.666 -12.056  -6.013  1.00  0.00     0.022 C 
HETATM   25  C   UNL     1      27.966 -13.236  -5.350  1.00  0.00     0.009 C 
ENDBRANCH  23  24
ENDBRANCH  21  22
ENDBRANCH  20  21
ENDBRANCH  18  19
ENDBRANCH  17  18
ENDBRANCH  15  16
ENDBRANCH  14  15
ENDBRANCH  12  13
ENDBRANCH  11  12
ENDBRANCH   9  10
ENDBRANCH   8   9
ENDBRANCH   6   7
ENDBRANCH   5   6
ENDBRANCH   3   5
ENDBRANCH   1   3
TORSDOF 15
ENDMDL
MODEL 20
REMARK VINA RESULT:      -4.4      2.940      5.147
REMARK  15 active torsions:
REMARK  status: ('A' for Active; 'I' for Inactive)
REMARK    1  A    between atoms: O_1  and  C_23 
REMARK    2  A    between atoms: C_3  and  C_7 
REMARK    3  A    between atoms: C_3  and  C_8 
REMARK    4  A    between atoms: C_4  and  C_10 
REMARK    5  A    between atoms: C_4  and  C_11 
REMARK    6  A    between atoms: C_5  and  C_12 
REMARK    7  A    between atoms: C_5  and  C_13 
REMARK    8  A    between atoms: C_6  and  C_15 
REMARK    9  A    between atoms: C_6  and  C_16 
REMARK   10  A    between atoms: C_7  and  C_23 
REMARK   11  A    between atoms: C_9  and  C_17 
REMARK   12  A    between atoms: C_9  and  C_18 
REMARK   13  A    between atoms: C_14  and  C_19 
REMARK   14  A    between atoms: C_14  and  C_20 
REMARK   15  A    between atoms: C_21  and  C_22 
ROOT
HETATM    1  O   UNL     1      32.415 -20.463 -19.714  1.00  0.00    -0.776 OA
HETATM    2  H   UNL     1      32.659 -19.987 -18.908  1.00  0.00     0.167 HD
ENDROOT
BRANCH   1   3
HETATM    3  C   UNL     1      31.125 -20.598 -20.089  1.00  0.00     0.139 C 
HETATM    4  O   UNL     1      30.844 -20.751 -21.270  1.00  0.00    -0.650 OA
BRANCH   3   5
HETATM    5  C   UNL     1      30.039 -20.564 -19.052  1.00  0.00     0.113 C 
BRANCH   5   6
HETATM    6  C   UNL     1      29.937 -19.175 -18.412  1.00  0.00     0.037 C 
BRANCH   6   7
HETATM    7  C   UNL     1      30.531 -19.184 -17.024  1.00  0.00    -0.030 C 
HETATM    8  C   UNL     1      30.640 -18.135 -16.181  1.00  0.00    -0.027 C 
BRANCH   8   9
HETATM    9  C   UNL     1      30.197 -16.708 -16.423  1.00  0.00     0.053 C 
BRANCH   9  10
HETATM   10  C   UNL     1      31.373 -15.832 -16.773  1.00  0.00    -0.027 C 
HETATM   11  C   UNL     1      31.658 -15.352 -17.997  1.00  0.00    -0.027 C 
BRANCH  11  12
HETATM   12  C   UNL     1      30.820 -15.554 -19.232  1.00  0.00     0.053 C 
BRANCH  12  13
HETATM   13  C   UNL     1      31.393 -16.648 -20.099  1.00  0.00    -0.027 C 
HETATM   14  C   UNL     1      31.010 -16.965 -21.350  1.00  0.00    -0.027 C 
BRANCH  14  15
HETATM   15  C   UNL     1      29.891 -16.321 -22.125  1.00  0.00     0.053 C 
BRANCH  15  16
HETATM   16  C   UNL     1      30.435 -15.858 -23.459  1.00  0.00    -0.027 C 
HETATM   17  C   UNL     1      30.873 -14.628 -23.794  1.00  0.00    -0.027 C 
BRANCH  17  18
HETATM   18  C   UNL     1      30.943 -13.414 -22.904  1.00  0.00     0.053 C 
BRANCH  18  19
HETATM   19  C   UNL     1      32.164 -13.474 -22.016  1.00  0.00    -0.027 C 
HETATM   20  C   UNL     1      32.487 -12.639 -21.007  1.00  0.00    -0.027 C 
BRANCH  20  21
HETATM   21  C   UNL     1      31.673 -11.478 -20.491  1.00  0.00     0.053 C 
BRANCH  21  22
HETATM   22  C   UNL     1      30.783 -11.911 -19.350  1.00  0.00    -0.027 C 
HETATM   23  C   UNL     1      29.472 -12.216 -19.409  1.00  0.00    -0.031 C 
BRANCH  23  24
HETATM   24  C   UNL     1      28.595 -12.174 -20.633  1.00  0.00     0.022 C 
HETATM   25  C   UNL     1      27.705 -13.404 -20.756  1.00  0.00     0.009 C 
ENDBRANCH  23  24
ENDBRANCH  21  22
ENDBRANCH  20  21
ENDBRANCH  18  19
ENDBRANCH  17  18
ENDBRANCH  15  16
ENDBRANCH  14  15
ENDBRANCH  12  13
ENDBRANCH  11  12
ENDBRANCH   9  10
ENDBRANCH   8   9
ENDBRANCH   6   7
ENDBRANCH   5   6
ENDBRANCH   3   5
ENDBRANCH   1   3
TORSDOF 15
ENDMDL
