MODEL 1
REMARK VINA RESULT:      -5.2      0.000      0.000
REMARK  16 active torsions:
REMARK  status: ('A' for Active; 'I' for Inactive)
REMARK    1  A    between atoms: O_1  and  C_20 
REMARK    2  A    between atoms: C_3  and  C_4 
REMARK    3  A    between atoms: C_3  and  C_5 
REMARK    4  A    between atoms: C_4  and  C_8 
REMARK    5  A    between atoms: C_5  and  C_11 
REMARK    6  A    between atoms: C_6  and  C_7 
REMARK    7  A    between atoms: C_6  and  C_9 
REMARK    8  A    between atoms: C_7  and  C_10 
REMARK    9  A    between atoms: C_8  and  C_12 
REMARK   10  A    between atoms: C_9  and  C_13 
REMARK   11  A    between atoms: C_10  and  C_14 
REMARK   12  A    between atoms: C_11  and  C_15 
REMARK   13  A    between atoms: C_12  and  C_16 
REMARK   14  A    between atoms: C_13  and  C_17 
REMARK   15  A    between atoms: C_14  and  C_18 
REMARK   16  A    between atoms: C_18  and  C_20 
ROOT
HETATM    1  O   UNL     1      21.925   2.574 -21.863  1.00  0.00    -0.776 OA
HETATM    2  H   UNL     1      22.646   2.636 -21.221  1.00  0.00     0.167 HD
ENDROOT
BRANCH   1   3
HETATM    3  C   UNL     1      21.166   1.463 -21.965  1.00  0.00     0.139 C 
HETATM    4  O   UNL     1      20.681   1.156 -23.046  1.00  0.00    -0.650 OA
BRANCH   3   5
HETATM    5  C   UNL     1      20.932   0.622 -20.737  1.00  0.00     0.110 C 
BRANCH   5   6
HETATM    6  C   UNL     1      20.524   1.448 -19.509  1.00  0.00     0.010 C 
BRANCH   6   7
HETATM    7  C   UNL     1      21.217   0.929 -18.243  1.00  0.00     0.001 C 
BRANCH   7   8
HETATM    8  C   UNL     1      21.689   2.091 -17.363  1.00  0.00     0.000 C 
BRANCH   8   9
HETATM    9  C   UNL     1      20.836   2.203 -16.094  1.00  0.00     0.000 C 
BRANCH   9  10
HETATM   10  C   UNL     1      19.901   0.997 -15.960  1.00  0.00     0.004 C 
BRANCH  10  11
HETATM   11  C   UNL     1      19.781   0.542 -14.503  1.00  0.00     0.027 C 
BRANCH  11  12
HETATM   12  C   UNL     1      21.035   0.924 -13.753  1.00  0.00    -0.031 C 
HETATM   13  C   UNL     1      21.104   1.442 -12.510  1.00  0.00    -0.031 C 
BRANCH  13  14
HETATM   14  C   UNL     1      19.947   1.765 -11.590  1.00  0.00     0.027 C 
BRANCH  14  15
HETATM   15  C   UNL     1      19.926   0.827 -10.370  1.00  0.00     0.004 C 
BRANCH  15  16
HETATM   16  C   UNL     1      21.172   0.930  -9.467  1.00  0.00     0.000 C 
BRANCH  16  17
HETATM   17  C   UNL     1      21.399   2.343  -8.905  1.00  0.00     0.000 C 
BRANCH  17  18
HETATM   18  C   UNL     1      21.465   2.325  -7.373  1.00  0.00     0.000 C 
BRANCH  18  19
HETATM   19  C   UNL     1      21.365   0.892  -6.835  1.00  0.00    -0.000 C 
BRANCH  19  20
HETATM   20  C   UNL     1      20.526   0.841  -5.553  1.00  0.00    -0.005 C 
HETATM   21  C   UNL     1      19.156   0.223  -5.815  1.00  0.00     0.005 C 
ENDBRANCH  19  20
ENDBRANCH  18  19
ENDBRANCH  17  18
ENDBRANCH  16  17
ENDBRANCH  15  16
ENDBRANCH  14  15
ENDBRANCH  13  14
ENDBRANCH  11  12
ENDBRANCH  10  11
ENDBRANCH   9  10
ENDBRANCH   8   9
ENDBRANCH   7   8
ENDBRANCH   6   7
ENDBRANCH   5   6
ENDBRANCH   3   5
ENDBRANCH   1   3
TORSDOF 16
ENDMDL
MODEL 2
REMARK VINA RESULT:      -4.5     27.380     29.144
REMARK  16 active torsions:
REMARK  status: ('A' for Active; 'I' for Inactive)
REMARK    1  A    between atoms: O_1  and  C_20 
REMARK    2  A    between atoms: C_3  and  C_4 
REMARK    3  A    between atoms: C_3  and  C_5 
REMARK    4  A    between atoms: C_4  and  C_8 
REMARK    5  A    between atoms: C_5  and  C_11 
REMARK    6  A    between atoms: C_6  and  C_7 
REMARK    7  A    between atoms: C_6  and  C_9 
REMARK    8  A    between atoms: C_7  and  C_10 
REMARK    9  A    between atoms: C_8  and  C_12 
REMARK   10  A    between atoms: C_9  and  C_13 
REMARK   11  A    between atoms: C_10  and  C_14 
REMARK   12  A    between atoms: C_11  and  C_15 
REMARK   13  A    between atoms: C_12  and  C_16 
REMARK   14  A    between atoms: C_13  and  C_17 
REMARK   15  A    between atoms: C_14  and  C_18 
REMARK   16  A    between atoms: C_18  and  C_20 
ROOT
HETATM    1  O   UNL     1      15.638 -24.064 -13.533  1.00  0.00    -0.776 OA
HETATM    2  H   UNL     1      16.002 -23.505 -12.831  1.00  0.00     0.167 HD
ENDROOT
BRANCH   1   3
HETATM    3  C   UNL     1      15.525 -25.400 -13.383  1.00  0.00     0.139 C 
HETATM    4  O   UNL     1      16.227 -26.147 -14.052  1.00  0.00    -0.650 OA
BRANCH   3   5
HETATM    5  C   UNL     1      14.532 -25.943 -12.390  1.00  0.00     0.110 C 
BRANCH   5   6
HETATM    6  C   UNL     1      15.068 -25.967 -10.952  1.00  0.00     0.010 C 
BRANCH   6   7
HETATM    7  C   UNL     1      14.162 -25.159 -10.014  1.00  0.00     0.001 C 
BRANCH   7   8
HETATM    8  C   UNL     1      13.093 -26.055  -9.380  1.00  0.00     0.000 C 
BRANCH   8   9
HETATM    9  C   UNL     1      13.677 -26.876  -8.223  1.00  0.00     0.000 C 
BRANCH   9  10
HETATM   10  C   UNL     1      14.673 -26.039  -7.413  1.00  0.00     0.004 C 
BRANCH  10  11
HETATM   11  C   UNL     1      14.086 -25.630  -6.059  1.00  0.00     0.027 C 
BRANCH  11  12
HETATM   12  C   UNL     1      15.070 -25.963  -4.964  1.00  0.00    -0.031 C 
HETATM   13  C   UNL     1      15.108 -25.433  -3.725  1.00  0.00    -0.031 C 
BRANCH  13  14
HETATM   14  C   UNL     1      14.181 -24.381  -3.154  1.00  0.00     0.027 C 
BRANCH  14  15
HETATM   15  C   UNL     1      13.703 -24.767  -1.743  1.00  0.00     0.004 C 
BRANCH  15  16
HETATM   16  C   UNL     1      13.654 -26.286  -1.481  1.00  0.00     0.000 C 
BRANCH  16  17
HETATM   17  C   UNL     1      12.250 -26.887  -1.661  1.00  0.00     0.000 C 
BRANCH  17  18
HETATM   18  C   UNL     1      12.213 -27.860  -2.847  1.00  0.00     0.000 C 
BRANCH  18  19
HETATM   19  C   UNL     1      11.631 -27.184  -4.094  1.00  0.00    -0.000 C 
BRANCH  19  20
HETATM   20  C   UNL     1      10.604 -26.111  -3.712  1.00  0.00    -0.005 C 
HETATM   21  C   UNL     1      10.737 -24.880  -4.602  1.00  0.00     0.005 C 
ENDBRANCH  19  20
ENDBRANCH  18  19
ENDBRANCH  17  18
ENDBRANCH  16  17
ENDBRANCH  15  16
ENDBRANCH  14  15
ENDBRANCH  13  14
ENDBRANCH  11  12
ENDBRANCH  10  11
ENDBRANCH   9  10
ENDBRANCH   8   9
ENDBRANCH   7   8
ENDBRANCH   6   7
ENDBRANCH   5   6
ENDBRANCH   3   5
ENDBRANCH   1   3
TORSDOF 16
ENDMDL
MODEL 3
REMARK VINA RESULT:      -4.2     17.520     18.262
REMARK  16 active torsions:
REMARK  status: ('A' for Active; 'I' for Inactive)
REMARK    1  A    between atoms: O_1  and  C_20 
REMARK    2  A    between atoms: C_3  and  C_4 
REMARK    3  A    between atoms: C_3  and  C_5 
REMARK    4  A    between atoms: C_4  and  C_8 
REMARK    5  A    between atoms: C_5  and  C_11 
REMARK    6  A    between atoms: C_6  and  C_7 
REMARK    7  A    between atoms: C_6  and  C_9 
REMARK    8  A    between atoms: C_7  and  C_10 
REMARK    9  A    between atoms: C_8  and  C_12 
REMARK   10  A    between atoms: C_9  and  C_13 
REMARK   11  A    between atoms: C_10  and  C_14 
REMARK   12  A    between atoms: C_11  and  C_15 
REMARK   13  A    between atoms: C_12  and  C_16 
REMARK   14  A    between atoms: C_13  and  C_17 
REMARK   15  A    between atoms: C_14  and  C_18 
REMARK   16  A    between atoms: C_18  and  C_20 
ROOT
HETATM    1  O   UNL     1       7.141 -12.466 -20.563  1.00  0.00    -0.776 OA
HETATM    2  H   UNL     1       6.629 -12.870 -19.848  1.00  0.00     0.167 HD
ENDROOT
BRANCH   1   3
HETATM    3  C   UNL     1       8.390 -11.998 -20.358  1.00  0.00     0.139 C 
HETATM    4  O   UNL     1       8.976 -11.414 -21.260  1.00  0.00    -0.650 OA
BRANCH   3   5
HETATM    5  C   UNL     1       9.037 -12.207 -19.014  1.00  0.00     0.110 C 
BRANCH   5   6
HETATM    6  C   UNL     1       8.392 -13.339 -18.203  1.00  0.00     0.010 C 
BRANCH   6   7
HETATM    7  C   UNL     1       8.096 -12.887 -16.767  1.00  0.00     0.001 C 
BRANCH   7   8
HETATM    8  C   UNL     1       8.912 -11.641 -16.407  1.00  0.00     0.000 C 
BRANCH   8   9
HETATM    9  C   UNL     1       9.620 -11.817 -15.058  1.00  0.00     0.000 C 
BRANCH   9  10
HETATM   10  C   UNL     1       9.407 -13.233 -14.513  1.00  0.00     0.004 C 
BRANCH  10  11
HETATM   11  C   UNL     1       9.338 -13.239 -12.984  1.00  0.00     0.027 C 
BRANCH  11  12
HETATM   12  C   UNL     1       9.063 -11.839 -12.489  1.00  0.00    -0.031 C 
HETATM   13  C   UNL     1       8.696 -11.483 -11.241  1.00  0.00    -0.031 C 
BRANCH  13  14
HETATM   14  C   UNL     1       8.467 -12.402 -10.060  1.00  0.00     0.027 C 
BRANCH  14  15
HETATM   15  C   UNL     1       9.764 -12.613  -9.260  1.00  0.00     0.004 C 
BRANCH  15  16
HETATM   16  C   UNL     1       9.567 -13.320  -7.903  1.00  0.00     0.000 C 
BRANCH  16  17
HETATM   17  C   UNL     1       8.408 -12.737  -7.079  1.00  0.00     0.000 C 
BRANCH  17  18
HETATM   18  C   UNL     1       8.863 -11.515  -6.270  1.00  0.00     0.000 C 
BRANCH  18  19
HETATM   19  C   UNL     1       9.831 -11.925  -5.153  1.00  0.00    -0.000 C 
BRANCH  19  20
HETATM   20  C   UNL     1       9.250 -13.068  -4.312  1.00  0.00    -0.005 C 
HETATM   21  C   UNL     1       8.720 -12.554  -2.977  1.00  0.00     0.005 C 
ENDBRANCH  19  20
ENDBRANCH  18  19
ENDBRANCH  17  18
ENDBRANCH  16  17
ENDBRANCH  15  16
ENDBRANCH  14  15
ENDBRANCH  13  14
ENDBRANCH  11  12
ENDBRANCH  10  11
ENDBRANCH   9  10
ENDBRANCH   8   9
ENDBRANCH   7   8
ENDBRANCH   6   7
ENDBRANCH   5   6
ENDBRANCH   3   5
ENDBRANCH   1   3
TORSDOF 16
ENDMDL
MODEL 4
REMARK VINA RESULT:      -4.1     18.905     21.065
REMARK  16 active torsions:
REMARK  status: ('A' for Active; 'I' for Inactive)
REMARK    1  A    between atoms: O_1  and  C_20 
REMARK    2  A    between atoms: C_3  and  C_4 
REMARK    3  A    between atoms: C_3  and  C_5 
REMARK    4  A    between atoms: C_4  and  C_8 
REMARK    5  A    between atoms: C_5  and  C_11 
REMARK    6  A    between atoms: C_6  and  C_7 
REMARK    7  A    between atoms: C_6  and  C_9 
REMARK    8  A    between atoms: C_7  and  C_10 
REMARK    9  A    between atoms: C_8  and  C_12 
REMARK   10  A    between atoms: C_9  and  C_13 
REMARK   11  A    between atoms: C_10  and  C_14 
REMARK   12  A    between atoms: C_11  and  C_15 
REMARK   13  A    between atoms: C_12  and  C_16 
REMARK   14  A    between atoms: C_13  and  C_17 
REMARK   15  A    between atoms: C_14  and  C_18 
REMARK   16  A    between atoms: C_18  and  C_20 
ROOT
HETATM    1  O   UNL     1       6.632 -12.794 -10.992  1.00  0.00    -0.776 OA
HETATM    2  H   UNL     1       5.809 -13.146 -10.623  1.00  0.00     0.167 HD
ENDROOT
BRANCH   1   3
HETATM    3  C   UNL     1       7.833 -13.109 -10.464  1.00  0.00     0.139 C 
HETATM    4  O   UNL     1       8.038 -12.927  -9.271  1.00  0.00    -0.650 OA
BRANCH   3   5
HETATM    5  C   UNL     1       8.900 -13.679 -11.361  1.00  0.00     0.110 C 
BRANCH   5   6
HETATM    6  C   UNL     1       9.281 -12.742 -12.515  1.00  0.00     0.010 C 
BRANCH   6   7
HETATM    7  C   UNL     1      10.398 -13.352 -13.371  1.00  0.00     0.001 C 
BRANCH   7   8
HETATM    8  C   UNL     1      10.456 -12.686 -14.750  1.00  0.00     0.000 C 
BRANCH   8   9
HETATM    9  C   UNL     1       9.457 -11.526 -14.845  1.00  0.00     0.000 C 
BRANCH   9  10
HETATM   10  C   UNL     1       8.776 -11.507 -16.217  1.00  0.00     0.004 C 
BRANCH  10  11
HETATM   11  C   UNL     1       9.242 -12.676 -17.089  1.00  0.00     0.027 C 
BRANCH  11  12
HETATM   12  C   UNL     1       8.131 -13.692 -17.203  1.00  0.00    -0.031 C 
HETATM   13  C   UNL     1       7.741 -14.337 -18.321  1.00  0.00    -0.031 C 
BRANCH  13  14
HETATM   14  C   UNL     1       8.319 -14.184 -19.712  1.00  0.00     0.027 C 
BRANCH  14  15
HETATM   15  C   UNL     1       9.603 -15.018 -19.875  1.00  0.00     0.004 C 
BRANCH  15  16
HETATM   16  C   UNL     1       9.534 -16.422 -19.241  1.00  0.00     0.000 C 
BRANCH  16  17
HETATM   17  C   UNL     1      10.823 -16.817 -18.502  1.00  0.00     0.000 C 
BRANCH  17  18
HETATM   18  C   UNL     1      11.137 -15.828 -17.371  1.00  0.00     0.000 C 
BRANCH  18  19
HETATM   19  C   UNL     1      10.580 -16.328 -16.033  1.00  0.00    -0.000 C 
BRANCH  19  20
HETATM   20  C   UNL     1      11.686 -16.424 -14.975  1.00  0.00    -0.005 C 
HETATM   21  C   UNL     1      12.337 -17.803 -14.983  1.00  0.00     0.005 C 
ENDBRANCH  19  20
ENDBRANCH  18  19
ENDBRANCH  17  18
ENDBRANCH  16  17
ENDBRANCH  15  16
ENDBRANCH  14  15
ENDBRANCH  13  14
ENDBRANCH  11  12
ENDBRANCH  10  11
ENDBRANCH   9  10
ENDBRANCH   8   9
ENDBRANCH   7   8
ENDBRANCH   6   7
ENDBRANCH   5   6
ENDBRANCH   3   5
ENDBRANCH   1   3
TORSDOF 16
ENDMDL
MODEL 5
REMARK VINA RESULT:      -4.0     27.769     28.853
REMARK  16 active torsions:
REMARK  status: ('A' for Active; 'I' for Inactive)
REMARK    1  A    between atoms: O_1  and  C_20 
REMARK    2  A    between atoms: C_3  and  C_4 
REMARK    3  A    between atoms: C_3  and  C_5 
REMARK    4  A    between atoms: C_4  and  C_8 
REMARK    5  A    between atoms: C_5  and  C_11 
REMARK    6  A    between atoms: C_6  and  C_7 
REMARK    7  A    between atoms: C_6  and  C_9 
REMARK    8  A    between atoms: C_7  and  C_10 
REMARK    9  A    between atoms: C_8  and  C_12 
REMARK   10  A    between atoms: C_9  and  C_13 
REMARK   11  A    between atoms: C_10  and  C_14 
REMARK   12  A    between atoms: C_11  and  C_15 
REMARK   13  A    between atoms: C_12  and  C_16 
REMARK   14  A    between atoms: C_13  and  C_17 
REMARK   15  A    between atoms: C_14  and  C_18 
REMARK   16  A    between atoms: C_18  and  C_20 
ROOT
HETATM    1  O   UNL     1      16.325 -25.186 -18.186  1.00  0.00    -0.776 OA
HETATM    2  H   UNL     1      16.737 -25.300 -19.055  1.00  0.00     0.167 HD
ENDROOT
BRANCH   1   3
HETATM    3  C   UNL     1      15.073 -25.624 -17.937  1.00  0.00     0.139 C 
HETATM    4  O   UNL     1      14.472 -26.265 -18.789  1.00  0.00    -0.650 OA
BRANCH   3   5
HETATM    5  C   UNL     1      14.441 -25.313 -16.605  1.00  0.00     0.110 C 
BRANCH   5   6
HETATM    6  C   UNL     1      12.907 -25.285 -16.658  1.00  0.00     0.010 C 
BRANCH   6   7
HETATM    7  C   UNL     1      12.317 -24.930 -15.287  1.00  0.00     0.001 C 
BRANCH   7   8
HETATM    8  C   UNL     1      13.109 -23.797 -14.627  1.00  0.00     0.000 C 
BRANCH   8   9
HETATM    9  C   UNL     1      13.366 -24.093 -13.145  1.00  0.00     0.000 C 
BRANCH   9  10
HETATM   10  C   UNL     1      14.442 -25.172 -12.985  1.00  0.00     0.004 C 
BRANCH  10  11
HETATM   11  C   UNL     1      13.920 -26.368 -12.186  1.00  0.00     0.027 C 
BRANCH  11  12
HETATM   12  C   UNL     1      13.255 -27.347 -13.124  1.00  0.00    -0.031 C 
HETATM   13  C   UNL     1      12.049 -27.928 -12.960  1.00  0.00    -0.031 C 
BRANCH  13  14
HETATM   14  C   UNL     1      11.095 -27.739 -11.800  1.00  0.00     0.027 C 
BRANCH  14  15
HETATM   15  C   UNL     1      10.960 -29.032 -10.975  1.00  0.00     0.004 C 
BRANCH  15  16
HETATM   16  C   UNL     1      10.860 -28.807  -9.453  1.00  0.00     0.000 C 
BRANCH  16  17
HETATM   17  C   UNL     1      11.511 -27.494  -8.989  1.00  0.00     0.000 C 
BRANCH  17  18
HETATM   18  C   UNL     1      12.420 -27.726  -7.775  1.00  0.00     0.000 C 
BRANCH  18  19
HETATM   19  C   UNL     1      13.356 -26.532  -7.553  1.00  0.00    -0.000 C 
BRANCH  19  20
HETATM   20  C   UNL     1      14.320 -26.360  -8.733  1.00  0.00    -0.005 C 
HETATM   21  C   UNL     1      15.503 -25.475  -8.352  1.00  0.00     0.005 C 
ENDBRANCH  19  20
ENDBRANCH  18  19
ENDBRANCH  17  18
ENDBRANCH  16  17
ENDBRANCH  15  16
ENDBRANCH  14  15
ENDBRANCH  13  14
ENDBRANCH  11  12
ENDBRANCH  10  11
ENDBRANCH   9  10
ENDBRANCH   8   9
ENDBRANCH   7   8
ENDBRANCH   6   7
ENDBRANCH   5   6
ENDBRANCH   3   5
ENDBRANCH   1   3
TORSDOF 16
ENDMDL
MODEL 6
REMARK VINA RESULT:      -4.0     28.364     29.503
REMARK  16 active torsions:
REMARK  status: ('A' for Active; 'I' for Inactive)
REMARK    1  A    between atoms: O_1  and  C_20 
REMARK    2  A    between atoms: C_3  and  C_4 
REMARK    3  A    between atoms: C_3  and  C_5 
REMARK    4  A    between atoms: C_4  and  C_8 
REMARK    5  A    between atoms: C_5  and  C_11 
REMARK    6  A    between atoms: C_6  and  C_7 
REMARK    7  A    between atoms: C_6  and  C_9 
REMARK    8  A    between atoms: C_7  and  C_10 
REMARK    9  A    between atoms: C_8  and  C_12 
REMARK   10  A    between atoms: C_9  and  C_13 
REMARK   11  A    between atoms: C_10  and  C_14 
REMARK   12  A    between atoms: C_11  and  C_15 
REMARK   13  A    between atoms: C_12  and  C_16 
REMARK   14  A    between atoms: C_13  and  C_17 
REMARK   15  A    between atoms: C_14  and  C_18 
REMARK   16  A    between atoms: C_18  and  C_20 
ROOT
HETATM    1  O   UNL     1      16.402 -25.258 -18.409  1.00  0.00    -0.776 OA
HETATM    2  H   UNL     1      16.831 -26.118 -18.521  1.00  0.00     0.167 HD
ENDROOT
BRANCH   1   3
HETATM    3  C   UNL     1      15.138 -25.155 -17.947  1.00  0.00     0.139 C 
HETATM    4  O   UNL     1      14.402 -24.280 -18.382  1.00  0.00    -0.650 OA
BRANCH   3   5
HETATM    5  C   UNL     1      14.661 -26.126 -16.899  1.00  0.00     0.110 C 
BRANCH   5   6
HETATM    6  C   UNL     1      14.410 -25.467 -15.536  1.00  0.00     0.010 C 
BRANCH   6   7
HETATM    7  C   UNL     1      15.240 -26.144 -14.437  1.00  0.00     0.001 C 
BRANCH   7   8
HETATM    8  C   UNL     1      15.428 -25.207 -13.240  1.00  0.00     0.000 C 
BRANCH   8   9
HETATM    9  C   UNL     1      14.941 -25.864 -11.943  1.00  0.00     0.000 C 
BRANCH   9  10
HETATM   10  C   UNL     1      13.908 -24.977 -11.239  1.00  0.00     0.004 C 
BRANCH  10  11
HETATM   11  C   UNL     1      12.956 -24.324 -12.244  1.00  0.00     0.027 C 
BRANCH  11  12
HETATM   12  C   UNL     1      11.556 -24.842 -12.019  1.00  0.00    -0.031 C 
HETATM   13  C   UNL     1      10.975 -25.890 -12.638  1.00  0.00    -0.031 C 
BRANCH  13  14
HETATM   14  C   UNL     1      11.588 -26.777 -13.701  1.00  0.00     0.027 C 
BRANCH  14  15
HETATM   15  C   UNL     1      12.293 -27.991 -13.072  1.00  0.00     0.004 C 
BRANCH  15  16
HETATM   16  C   UNL     1      11.411 -29.251 -12.959  1.00  0.00     0.000 C 
BRANCH  16  17
HETATM   17  C   UNL     1      10.937 -29.532 -11.524  1.00  0.00     0.000 C 
BRANCH  17  18
HETATM   18  C   UNL     1       9.446 -29.209 -11.361  1.00  0.00     0.000 C 
BRANCH  18  19
HETATM   19  C   UNL     1       8.743 -29.157 -12.723  1.00  0.00    -0.000 C 
BRANCH  19  20
HETATM   20  C   UNL     1       7.921 -27.872 -12.871  1.00  0.00    -0.005 C 
HETATM   21  C   UNL     1       7.678 -27.214 -11.517  1.00  0.00     0.005 C 
ENDBRANCH  19  20
ENDBRANCH  18  19
ENDBRANCH  17  18
ENDBRANCH  16  17
ENDBRANCH  15  16
ENDBRANCH  14  15
ENDBRANCH  13  14
ENDBRANCH  11  12
ENDBRANCH  10  11
ENDBRANCH   9  10
ENDBRANCH   8   9
ENDBRANCH   7   8
ENDBRANCH   6   7
ENDBRANCH   5   6
ENDBRANCH   3   5
ENDBRANCH   1   3
TORSDOF 16
ENDMDL
MODEL 7
REMARK VINA RESULT:      -4.0     26.850     28.345
REMARK  16 active torsions:
REMARK  status: ('A' for Active; 'I' for Inactive)
REMARK    1  A    between atoms: O_1  and  C_20 
REMARK    2  A    between atoms: C_3  and  C_4 
REMARK    3  A    between atoms: C_3  and  C_5 
REMARK    4  A    between atoms: C_4  and  C_8 
REMARK    5  A    between atoms: C_5  and  C_11 
REMARK    6  A    between atoms: C_6  and  C_7 
REMARK    7  A    between atoms: C_6  and  C_9 
REMARK    8  A    between atoms: C_7  and  C_10 
REMARK    9  A    between atoms: C_8  and  C_12 
REMARK   10  A    between atoms: C_9  and  C_13 
REMARK   11  A    between atoms: C_10  and  C_14 
REMARK   12  A    between atoms: C_11  and  C_15 
REMARK   13  A    between atoms: C_12  and  C_16 
REMARK   14  A    between atoms: C_13  and  C_17 
REMARK   15  A    between atoms: C_14  and  C_18 
REMARK   16  A    between atoms: C_18  and  C_20 
ROOT
HETATM    1  O   UNL     1      16.391 -25.147 -13.432  1.00  0.00    -0.776 OA
HETATM    2  H   UNL     1      16.991 -24.456 -13.118  1.00  0.00     0.167 HD
ENDROOT
BRANCH   1   3
HETATM    3  C   UNL     1      15.084 -25.153 -13.096  1.00  0.00     0.139 C 
HETATM    4  O   UNL     1      14.358 -24.241 -13.466  1.00  0.00    -0.650 OA
BRANCH   3   5
HETATM    5  C   UNL     1      14.548 -26.290 -12.266  1.00  0.00     0.110 C 
BRANCH   5   6
HETATM    6  C   UNL     1      13.424 -27.068 -12.964  1.00  0.00     0.010 C 
BRANCH   6   7
HETATM    7  C   UNL     1      12.287 -27.388 -11.986  1.00  0.00     0.001 C 
BRANCH   7   8
HETATM    8  C   UNL     1      12.322 -26.444 -10.779  1.00  0.00     0.000 C 
BRANCH   8   9
HETATM    9  C   UNL     1      10.945 -25.819 -10.526  1.00  0.00     0.000 C 
BRANCH   9  10
HETATM   10  C   UNL     1      11.086 -24.369 -10.052  1.00  0.00     0.004 C 
BRANCH  10  11
HETATM   11  C   UNL     1      12.348 -23.715 -10.622  1.00  0.00     0.027 C 
BRANCH  11  12
HETATM   12  C   UNL     1      13.056 -22.954  -9.527  1.00  0.00    -0.031 C 
HETATM   13  C   UNL     1      14.106 -23.381  -8.797  1.00  0.00    -0.031 C 
BRANCH  13  14
HETATM   14  C   UNL     1      14.808 -24.719  -8.904  1.00  0.00     0.027 C 
BRANCH  14  15
HETATM   15  C   UNL     1      14.511 -25.602  -7.679  1.00  0.00     0.004 C 
BRANCH  15  16
HETATM   16  C   UNL     1      13.512 -24.986  -6.678  1.00  0.00     0.000 C 
BRANCH  16  17
HETATM   17  C   UNL     1      12.216 -25.800  -6.537  1.00  0.00     0.000 C 
BRANCH  17  18
HETATM   18  C   UNL     1      11.793 -25.918  -5.066  1.00  0.00     0.000 C 
BRANCH  18  19
HETATM   19  C   UNL     1      12.749 -26.833  -4.292  1.00  0.00    -0.000 C 
BRANCH  19  20
HETATM   20  C   UNL     1      13.460 -26.067  -3.171  1.00  0.00    -0.005 C 
HETATM   21  C   UNL     1      14.970 -26.050  -3.387  1.00  0.00     0.005 C 
ENDBRANCH  19  20
ENDBRANCH  18  19
ENDBRANCH  17  18
ENDBRANCH  16  17
ENDBRANCH  15  16
ENDBRANCH  14  15
ENDBRANCH  13  14
ENDBRANCH  11  12
ENDBRANCH  10  11
ENDBRANCH   9  10
ENDBRANCH   8   9
ENDBRANCH   7   8
ENDBRANCH   6   7
ENDBRANCH   5   6
ENDBRANCH   3   5
ENDBRANCH   1   3
TORSDOF 16
ENDMDL
MODEL 8
REMARK VINA RESULT:      -4.0     28.277     29.997
REMARK  16 active torsions:
REMARK  status: ('A' for Active; 'I' for Inactive)
REMARK    1  A    between atoms: O_1  and  C_20 
REMARK    2  A    between atoms: C_3  and  C_4 
REMARK    3  A    between atoms: C_3  and  C_5 
REMARK    4  A    between atoms: C_4  and  C_8 
REMARK    5  A    between atoms: C_5  and  C_11 
REMARK    6  A    between atoms: C_6  and  C_7 
REMARK    7  A    between atoms: C_6  and  C_9 
REMARK    8  A    between atoms: C_7  and  C_10 
REMARK    9  A    between atoms: C_8  and  C_12 
REMARK   10  A    between atoms: C_9  and  C_13 
REMARK   11  A    between atoms: C_10  and  C_14 
REMARK   12  A    between atoms: C_11  and  C_15 
REMARK   13  A    between atoms: C_12  and  C_16 
REMARK   14  A    between atoms: C_13  and  C_17 
REMARK   15  A    between atoms: C_14  and  C_18 
REMARK   16  A    between atoms: C_18  and  C_20 
ROOT
HETATM    1  O   UNL     1      -5.498   0.335 -17.914  1.00  0.00    -0.776 OA
HETATM    2  H   UNL     1      -5.938   0.362 -18.776  1.00  0.00     0.167 HD
ENDROOT
BRANCH   1   3
HETATM    3  C   UNL     1      -6.201   0.350 -16.763  1.00  0.00     0.139 C 
HETATM    4  O   UNL     1      -7.026   1.232 -16.566  1.00  0.00    -0.650 OA
BRANCH   3   5
HETATM    5  C   UNL     1      -5.953  -0.728 -15.740  1.00  0.00     0.110 C 
BRANCH   5   6
HETATM    6  C   UNL     1      -5.176  -0.228 -14.514  1.00  0.00     0.010 C 
BRANCH   6   7
HETATM    7  C   UNL     1      -6.128   0.332 -13.450  1.00  0.00     0.001 C 
BRANCH   7   8
HETATM    8  C   UNL     1      -5.653  -0.038 -12.041  1.00  0.00     0.000 C 
BRANCH   8   9
HETATM    9  C   UNL     1      -6.646   0.447 -10.979  1.00  0.00     0.000 C 
BRANCH   9  10
HETATM   10  C   UNL     1      -7.194   1.832 -11.339  1.00  0.00     0.004 C 
BRANCH  10  11
HETATM   11  C   UNL     1      -8.685   1.945 -11.011  1.00  0.00     0.027 C 
BRANCH  11  12
HETATM   12  C   UNL     1      -9.119   3.386 -11.138  1.00  0.00    -0.031 C 
HETATM   13  C   UNL     1      -9.836   3.926 -12.144  1.00  0.00    -0.031 C 
BRANCH  13  14
HETATM   14  C   UNL     1     -10.361   3.217 -13.374  1.00  0.00     0.027 C 
BRANCH  14  15
HETATM   15  C   UNL     1      -9.351   3.291 -14.533  1.00  0.00     0.004 C 
BRANCH  15  16
HETATM   16  C   UNL     1      -9.909   3.926 -15.823  1.00  0.00     0.000 C 
BRANCH  16  17
HETATM   17  C   UNL     1     -10.141   2.905 -16.950  1.00  0.00     0.000 C 
BRANCH  17  18
HETATM   18  C   UNL     1      -9.382   3.303 -18.222  1.00  0.00     0.000 C 
BRANCH  18  19
HETATM   19  C   UNL     1     -10.301   3.255 -19.448  1.00  0.00    -0.000 C 
BRANCH  19  20
HETATM   20  C   UNL     1      -9.491   3.084 -20.739  1.00  0.00    -0.005 C 
HETATM   21  C   UNL     1     -10.371   3.269 -21.970  1.00  0.00     0.005 C 
ENDBRANCH  19  20
ENDBRANCH  18  19
ENDBRANCH  17  18
ENDBRANCH  16  17
ENDBRANCH  15  16
ENDBRANCH  14  15
ENDBRANCH  13  14
ENDBRANCH  11  12
ENDBRANCH  10  11
ENDBRANCH   9  10
ENDBRANCH   8   9
ENDBRANCH   7   8
ENDBRANCH   6   7
ENDBRANCH   5   6
ENDBRANCH   3   5
ENDBRANCH   1   3
TORSDOF 16
ENDMDL
MODEL 9
REMARK VINA RESULT:      -3.9     32.761     33.347
REMARK  16 active torsions:
REMARK  status: ('A' for Active; 'I' for Inactive)
REMARK    1  A    between atoms: O_1  and  C_20 
REMARK    2  A    between atoms: C_3  and  C_4 
REMARK    3  A    between atoms: C_3  and  C_5 
REMARK    4  A    between atoms: C_4  and  C_8 
REMARK    5  A    between atoms: C_5  and  C_11 
REMARK    6  A    between atoms: C_6  and  C_7 
REMARK    7  A    between atoms: C_6  and  C_9 
REMARK    8  A    between atoms: C_7  and  C_10 
REMARK    9  A    between atoms: C_8  and  C_12 
REMARK   10  A    between atoms: C_9  and  C_13 
REMARK   11  A    between atoms: C_10  and  C_14 
REMARK   12  A    between atoms: C_11  and  C_15 
REMARK   13  A    between atoms: C_12  and  C_16 
REMARK   14  A    between atoms: C_13  and  C_17 
REMARK   15  A    between atoms: C_14  and  C_18 
REMARK   16  A    between atoms: C_18  and  C_20 
ROOT
HETATM    1  O   UNL     1      50.455 -18.068 -20.659  1.00  0.00    -0.776 OA
HETATM    2  H   UNL     1      50.462 -19.028 -20.535  1.00  0.00     0.167 HD
ENDROOT
BRANCH   1   3
HETATM    3  C   UNL     1      49.402 -17.316 -20.276  1.00  0.00     0.139 C 
HETATM    4  O   UNL     1      48.817 -16.625 -21.100  1.00  0.00    -0.650 OA
BRANCH   3   5
HETATM    5  C   UNL     1      48.968 -17.346 -18.834  1.00  0.00     0.110 C 
BRANCH   5   6
HETATM    6  C   UNL     1      47.610 -18.031 -18.627  1.00  0.00     0.010 C 
BRANCH   6   7
HETATM    7  C   UNL     1      46.575 -17.043 -18.074  1.00  0.00     0.001 C 
BRANCH   7   8
HETATM    8  C   UNL     1      46.588 -17.038 -16.542  1.00  0.00     0.000 C 
BRANCH   8   9
HETATM    9  C   UNL     1      47.421 -15.869 -16.001  1.00  0.00     0.000 C 
BRANCH   9  10
HETATM   10  C   UNL     1      48.308 -16.327 -14.839  1.00  0.00     0.004 C 
BRANCH  10  11
HETATM   11  C   UNL     1      49.324 -17.379 -15.293  1.00  0.00     0.027 C 
BRANCH  11  12
HETATM   12  C   UNL     1      49.579 -18.350 -14.165  1.00  0.00    -0.031 C 
HETATM   13  C   UNL     1      48.830 -19.424 -13.841  1.00  0.00    -0.031 C 
BRANCH  13  14
HETATM   14  C   UNL     1      47.564 -19.894 -14.525  1.00  0.00     0.027 C 
BRANCH  14  15
HETATM   15  C   UNL     1      46.372 -19.893 -13.552  1.00  0.00     0.004 C 
BRANCH  15  16
HETATM   16  C   UNL     1      45.840 -18.489 -13.199  1.00  0.00     0.000 C 
BRANCH  16  17
HETATM   17  C   UNL     1      46.237 -18.028 -11.787  1.00  0.00     0.000 C 
BRANCH  17  18
HETATM   18  C   UNL     1      46.555 -16.528 -11.764  1.00  0.00     0.000 C 
BRANCH  18  19
HETATM   19  C   UNL     1      47.582 -16.200 -10.673  1.00  0.00    -0.000 C 
BRANCH  19  20
HETATM   20  C   UNL     1      48.993 -16.621 -11.100  1.00  0.00    -0.005 C 
HETATM   21  C   UNL     1      49.580 -17.641 -10.130  1.00  0.00     0.005 C 
ENDBRANCH  19  20
ENDBRANCH  18  19
ENDBRANCH  17  18
ENDBRANCH  16  17
ENDBRANCH  15  16
ENDBRANCH  14  15
ENDBRANCH  13  14
ENDBRANCH  11  12
ENDBRANCH  10  11
ENDBRANCH   9  10
ENDBRANCH   8   9
ENDBRANCH   7   8
ENDBRANCH   6   7
ENDBRANCH   5   6
ENDBRANCH   3   5
ENDBRANCH   1   3
TORSDOF 16
ENDMDL
MODEL 10
REMARK VINA RESULT:      -3.9     30.623     31.482
REMARK  16 active torsions:
REMARK  status: ('A' for Active; 'I' for Inactive)
REMARK    1  A    between atoms: O_1  and  C_20 
REMARK    2  A    between atoms: C_3  and  C_4 
REMARK    3  A    between atoms: C_3  and  C_5 
REMARK    4  A    between atoms: C_4  and  C_8 
REMARK    5  A    between atoms: C_5  and  C_11 
REMARK    6  A    between atoms: C_6  and  C_7 
REMARK    7  A    between atoms: C_6  and  C_9 
REMARK    8  A    between atoms: C_7  and  C_10 
REMARK    9  A    between atoms: C_8  and  C_12 
REMARK   10  A    between atoms: C_9  and  C_13 
REMARK   11  A    between atoms: C_10  and  C_14 
REMARK   12  A    between atoms: C_11  and  C_15 
REMARK   13  A    between atoms: C_12  and  C_16 
REMARK   14  A    between atoms: C_13  and  C_17 
REMARK   15  A    between atoms: C_14  and  C_18 
REMARK   16  A    between atoms: C_18  and  C_20 
ROOT
HETATM    1  O   UNL     1      47.707 -14.936 -11.407  1.00  0.00    -0.776 OA
HETATM    2  H   UNL     1      48.347 -14.721 -12.100  1.00  0.00     0.167 HD
ENDROOT
BRANCH   1   3
HETATM    3  C   UNL     1      47.249 -16.193 -11.235  1.00  0.00     0.139 C 
HETATM    4  O   UNL     1      47.056 -16.620 -10.104  1.00  0.00    -0.650 OA
BRANCH   3   5
HETATM    5  C   UNL     1      46.986 -17.048 -12.446  1.00  0.00     0.110 C 
BRANCH   5   6
HETATM    6  C   UNL     1      48.105 -18.061 -12.725  1.00  0.00     0.010 C 
BRANCH   6   7
HETATM    7  C   UNL     1      49.257 -17.407 -13.500  1.00  0.00     0.001 C 
BRANCH   7   8
HETATM    8  C   UNL     1      49.273 -17.880 -14.957  1.00  0.00     0.000 C 
BRANCH   8   9
HETATM    9  C   UNL     1      49.263 -16.690 -15.923  1.00  0.00     0.000 C 
BRANCH   9  10
HETATM   10  C   UNL     1      48.023 -15.818 -15.698  1.00  0.00     0.004 C 
BRANCH  10  11
HETATM   11  C   UNL     1      46.908 -16.165 -16.689  1.00  0.00     0.027 C 
BRANCH  11  12
HETATM   12  C   UNL     1      46.071 -17.289 -16.129  1.00  0.00    -0.031 C 
HETATM   13  C   UNL     1      44.724 -17.356 -16.103  1.00  0.00    -0.031 C 
BRANCH  13  14
HETATM   14  C   UNL     1      43.749 -16.320 -16.621  1.00  0.00     0.027 C 
BRANCH  14  15
HETATM   15  C   UNL     1      43.179 -15.470 -15.471  1.00  0.00     0.004 C 
BRANCH  15  16
HETATM   16  C   UNL     1      41.786 -15.914 -14.982  1.00  0.00     0.000 C 
BRANCH  16  17
HETATM   17  C   UNL     1      41.726 -16.159 -13.465  1.00  0.00     0.000 C 
BRANCH  17  18
HETATM   18  C   UNL     1      43.093 -16.594 -12.921  1.00  0.00     0.000 C 
BRANCH  18  19
HETATM   19  C   UNL     1      43.435 -15.841 -11.630  1.00  0.00    -0.000 C 
BRANCH  19  20
HETATM   20  C   UNL     1      43.541 -16.803 -10.441  1.00  0.00    -0.005 C 
HETATM   21  C   UNL     1      43.788 -18.233 -10.911  1.00  0.00     0.005 C 
ENDBRANCH  19  20
ENDBRANCH  18  19
ENDBRANCH  17  18
ENDBRANCH  16  17
ENDBRANCH  15  16
ENDBRANCH  14  15
ENDBRANCH  13  14
ENDBRANCH  11  12
ENDBRANCH  10  11
ENDBRANCH   9  10
ENDBRANCH   8   9
ENDBRANCH   7   8
ENDBRANCH   6   7
ENDBRANCH   5   6
ENDBRANCH   3   5
ENDBRANCH   1   3
TORSDOF 16
ENDMDL
MODEL 11
REMARK VINA RESULT:      -3.9     32.738     33.303
REMARK  16 active torsions:
REMARK  status: ('A' for Active; 'I' for Inactive)
REMARK    1  A    between atoms: O_1  and  C_20 
REMARK    2  A    between atoms: C_3  and  C_4 
REMARK    3  A    between atoms: C_3  and  C_5 
REMARK    4  A    between atoms: C_4  and  C_8 
REMARK    5  A    between atoms: C_5  and  C_11 
REMARK    6  A    between atoms: C_6  and  C_7 
REMARK    7  A    between atoms: C_6  and  C_9 
REMARK    8  A    between atoms: C_7  and  C_10 
REMARK    9  A    between atoms: C_8  and  C_12 
REMARK   10  A    between atoms: C_9  and  C_13 
REMARK   11  A    between atoms: C_10  and  C_14 
REMARK   12  A    between atoms: C_11  and  C_15 
REMARK   13  A    between atoms: C_12  and  C_16 
REMARK   14  A    between atoms: C_13  and  C_17 
REMARK   15  A    between atoms: C_14  and  C_18 
REMARK   16  A    between atoms: C_18  and  C_20 
ROOT
HETATM    1  O   UNL     1      48.574 -15.260 -20.451  1.00  0.00    -0.776 OA
HETATM    2  H   UNL     1      47.678 -14.895 -20.453  1.00  0.00     0.167 HD
ENDROOT
BRANCH   1   3
HETATM    3  C   UNL     1      48.798 -16.580 -20.278  1.00  0.00     0.139 C 
HETATM    4  O   UNL     1      49.382 -17.215 -21.146  1.00  0.00    -0.650 OA
BRANCH   3   5
HETATM    5  C   UNL     1      48.321 -17.243 -19.013  1.00  0.00     0.110 C 
BRANCH   5   6
HETATM    6  C   UNL     1      49.452 -17.911 -18.219  1.00  0.00     0.010 C 
BRANCH   6   7
HETATM    7  C   UNL     1      49.403 -17.501 -16.741  1.00  0.00     0.001 C 
BRANCH   7   8
HETATM    8  C   UNL     1      48.031 -16.921 -16.380  1.00  0.00     0.000 C 
BRANCH   8   9
HETATM    9  C   UNL     1      47.990 -16.475 -14.914  1.00  0.00     0.000 C 
BRANCH   9  10
HETATM   10  C   UNL     1      46.885 -17.215 -14.153  1.00  0.00     0.004 C 
BRANCH  10  11
HETATM   11  C   UNL     1      47.463 -18.086 -13.035  1.00  0.00     0.027 C 
BRANCH  11  12
HETATM   12  C   UNL     1      48.912 -17.721 -12.813  1.00  0.00    -0.031 C 
HETATM   13  C   UNL     1      49.428 -17.081 -11.745  1.00  0.00    -0.031 C 
BRANCH  13  14
HETATM   14  C   UNL     1      48.674 -16.575 -10.532  1.00  0.00     0.027 C 
BRANCH  14  15
HETATM   15  C   UNL     1      49.185 -17.241  -9.242  1.00  0.00     0.004 C 
BRANCH  15  16
HETATM   16  C   UNL     1      48.206 -18.258  -8.620  1.00  0.00     0.000 C 
BRANCH  16  17
HETATM   17  C   UNL     1      46.922 -17.609  -8.077  1.00  0.00     0.000 C 
BRANCH  17  18
HETATM   18  C   UNL     1      47.247 -16.411  -7.176  1.00  0.00     0.000 C 
BRANCH  18  19
HETATM   19  C   UNL     1      47.412 -16.851  -5.716  1.00  0.00    -0.000 C 
BRANCH  19  20
HETATM   20  C   UNL     1      48.879 -16.769  -5.278  1.00  0.00    -0.005 C 
HETATM   21  C   UNL     1      49.472 -18.160  -5.077  1.00  0.00     0.005 C 
ENDBRANCH  19  20
ENDBRANCH  18  19
ENDBRANCH  17  18
ENDBRANCH  16  17
ENDBRANCH  15  16
ENDBRANCH  14  15
ENDBRANCH  13  14
ENDBRANCH  11  12
ENDBRANCH  10  11
ENDBRANCH   9  10
ENDBRANCH   8   9
ENDBRANCH   7   8
ENDBRANCH   6   7
ENDBRANCH   5   6
ENDBRANCH   3   5
ENDBRANCH   1   3
TORSDOF 16
ENDMDL
MODEL 12
REMARK VINA RESULT:      -3.9     20.951     21.754
REMARK  16 active torsions:
REMARK  status: ('A' for Active; 'I' for Inactive)
REMARK    1  A    between atoms: O_1  and  C_20 
REMARK    2  A    between atoms: C_3  and  C_4 
REMARK    3  A    between atoms: C_3  and  C_5 
REMARK    4  A    between atoms: C_4  and  C_8 
REMARK    5  A    between atoms: C_5  and  C_11 
REMARK    6  A    between atoms: C_6  and  C_7 
REMARK    7  A    between atoms: C_6  and  C_9 
REMARK    8  A    between atoms: C_7  and  C_10 
REMARK    9  A    between atoms: C_8  and  C_12 
REMARK   10  A    between atoms: C_9  and  C_13 
REMARK   11  A    between atoms: C_10  and  C_14 
REMARK   12  A    between atoms: C_11  and  C_15 
REMARK   13  A    between atoms: C_12  and  C_16 
REMARK   14  A    between atoms: C_13  and  C_17 
REMARK   15  A    between atoms: C_14  and  C_18 
REMARK   16  A    between atoms: C_18  and  C_20 
ROOT
HETATM    1  O   UNL     1      38.699 -10.177 -18.510  1.00  0.00    -0.776 OA
HETATM    2  H   UNL     1      38.347 -10.090 -19.407  1.00  0.00     0.167 HD
ENDROOT
BRANCH   1   3
HETATM    3  C   UNL     1      40.017 -10.361 -18.284  1.00  0.00     0.139 C 
HETATM    4  O   UNL     1      40.824 -10.128 -19.174  1.00  0.00    -0.650 OA
BRANCH   3   5
HETATM    5  C   UNL     1      40.466 -10.852 -16.932  1.00  0.00     0.110 C 
BRANCH   5   6
HETATM    6  C   UNL     1      39.691 -12.086 -16.451  1.00  0.00     0.010 C 
BRANCH   6   7
HETATM    7  C   UNL     1      39.127 -11.866 -15.041  1.00  0.00     0.001 C 
BRANCH   7   8
HETATM    8  C   UNL     1      39.268 -13.134 -14.192  1.00  0.00     0.000 C 
BRANCH   8   9
HETATM    9  C   UNL     1      39.420 -12.788 -12.706  1.00  0.00     0.000 C 
BRANCH   9  10
HETATM   10  C   UNL     1      39.812 -11.317 -12.528  1.00  0.00     0.004 C 
BRANCH  10  11
HETATM   11  C   UNL     1      40.707 -11.122 -11.302  1.00  0.00     0.027 C 
BRANCH  11  12
HETATM   12  C   UNL     1      40.334 -12.131 -10.242  1.00  0.00    -0.031 C 
HETATM   13  C   UNL     1      39.602 -11.902  -9.133  1.00  0.00    -0.031 C 
BRANCH  13  14
HETATM   14  C   UNL     1      38.997 -10.585  -8.695  1.00  0.00     0.027 C 
BRANCH  14  15
HETATM   15  C   UNL     1      37.469 -10.584  -8.881  1.00  0.00     0.004 C 
BRANCH  15  16
HETATM   16  C   UNL     1      36.986 -11.269 -10.175  1.00  0.00     0.000 C 
BRANCH  16  17
HETATM   17  C   UNL     1      36.238 -10.317 -11.122  1.00  0.00     0.000 C 
BRANCH  17  18
HETATM   18  C   UNL     1      34.856  -9.954 -10.563  1.00  0.00     0.000 C 
BRANCH  18  19
HETATM   19  C   UNL     1      34.282  -8.722 -11.274  1.00  0.00    -0.000 C 
BRANCH  19  20
HETATM   20  C   UNL     1      32.960  -9.055 -11.975  1.00  0.00    -0.005 C 
HETATM   21  C   UNL     1      33.167  -9.259 -13.472  1.00  0.00     0.005 C 
ENDBRANCH  19  20
ENDBRANCH  18  19
ENDBRANCH  17  18
ENDBRANCH  16  17
ENDBRANCH  15  16
ENDBRANCH  14  15
ENDBRANCH  13  14
ENDBRANCH  11  12
ENDBRANCH  10  11
ENDBRANCH   9  10
ENDBRANCH   8   9
ENDBRANCH   7   8
ENDBRANCH   6   7
ENDBRANCH   5   6
ENDBRANCH   3   5
ENDBRANCH   1   3
TORSDOF 16
ENDMDL
MODEL 13
REMARK VINA RESULT:      -3.9     32.908     33.638
REMARK  16 active torsions:
REMARK  status: ('A' for Active; 'I' for Inactive)
REMARK    1  A    between atoms: O_1  and  C_20 
REMARK    2  A    between atoms: C_3  and  C_4 
REMARK    3  A    between atoms: C_3  and  C_5 
REMARK    4  A    between atoms: C_4  and  C_8 
REMARK    5  A    between atoms: C_5  and  C_11 
REMARK    6  A    between atoms: C_6  and  C_7 
REMARK    7  A    between atoms: C_6  and  C_9 
REMARK    8  A    between atoms: C_7  and  C_10 
REMARK    9  A    between atoms: C_8  and  C_12 
REMARK   10  A    between atoms: C_9  and  C_13 
REMARK   11  A    between atoms: C_10  and  C_14 
REMARK   12  A    between atoms: C_11  and  C_15 
REMARK   13  A    between atoms: C_12  and  C_16 
REMARK   14  A    between atoms: C_13  and  C_17 
REMARK   15  A    between atoms: C_14  and  C_18 
REMARK   16  A    between atoms: C_18  and  C_20 
ROOT
HETATM    1  O   UNL     1      50.443 -17.863 -15.549  1.00  0.00    -0.776 OA
HETATM    2  H   UNL     1      51.116 -18.380 -16.014  1.00  0.00     0.167 HD
ENDROOT
BRANCH   1   3
HETATM    3  C   UNL     1      49.444 -17.246 -16.214  1.00  0.00     0.139 C 
HETATM    4  O   UNL     1      49.303 -17.440 -17.414  1.00  0.00    -0.650 OA
BRANCH   3   5
HETATM    5  C   UNL     1      48.519 -16.329 -15.458  1.00  0.00     0.110 C 
BRANCH   5   6
HETATM    6  C   UNL     1      47.172 -16.980 -15.115  1.00  0.00     0.010 C 
BRANCH   6   7
HETATM    7  C   UNL     1      46.907 -16.930 -13.605  1.00  0.00     0.001 C 
BRANCH   7   8
HETATM    8  C   UNL     1      48.149 -17.360 -12.817  1.00  0.00     0.000 C 
BRANCH   8   9
HETATM    9  C   UNL     1      48.221 -16.639 -11.465  1.00  0.00     0.000 C 
BRANCH   9  10
HETATM   10  C   UNL     1      49.548 -16.940 -10.760  1.00  0.00     0.004 C 
BRANCH  10  11
HETATM   11  C   UNL     1      50.020 -18.368 -11.043  1.00  0.00     0.027 C 
BRANCH  11  12
HETATM   12  C   UNL     1      49.924 -19.189  -9.780  1.00  0.00    -0.031 C 
HETATM   13  C   UNL     1      48.838 -19.848  -9.327  1.00  0.00    -0.031 C 
BRANCH  13  14
HETATM   14  C   UNL     1      47.471 -19.907  -9.975  1.00  0.00     0.027 C 
BRANCH  14  15
HETATM   15  C   UNL     1      46.352 -19.835  -8.921  1.00  0.00     0.004 C 
BRANCH  15  16
HETATM   16  C   UNL     1      45.452 -18.587  -9.032  1.00  0.00     0.000 C 
BRANCH  16  17
HETATM   17  C   UNL     1      46.167 -17.287  -8.628  1.00  0.00     0.000 C 
BRANCH  17  18
HETATM   18  C   UNL     1      45.858 -16.916  -7.171  1.00  0.00     0.000 C 
BRANCH  18  19
HETATM   19  C   UNL     1      47.129 -16.953  -6.314  1.00  0.00    -0.000 C 
BRANCH  19  20
HETATM   20  C   UNL     1      48.387 -16.916  -7.189  1.00  0.00    -0.005 C 
HETATM   21  C   UNL     1      49.592 -17.482  -6.446  1.00  0.00     0.005 C 
ENDBRANCH  19  20
ENDBRANCH  18  19
ENDBRANCH  17  18
ENDBRANCH  16  17
ENDBRANCH  15  16
ENDBRANCH  14  15
ENDBRANCH  13  14
ENDBRANCH  11  12
ENDBRANCH  10  11
ENDBRANCH   9  10
ENDBRANCH   8   9
ENDBRANCH   7   8
ENDBRANCH   6   7
ENDBRANCH   5   6
ENDBRANCH   3   5
ENDBRANCH   1   3
TORSDOF 16
ENDMDL
MODEL 14
REMARK VINA RESULT:      -3.9     19.938     22.240
REMARK  16 active torsions:
REMARK  status: ('A' for Active; 'I' for Inactive)
REMARK    1  A    between atoms: O_1  and  C_20 
REMARK    2  A    between atoms: C_3  and  C_4 
REMARK    3  A    between atoms: C_3  and  C_5 
REMARK    4  A    between atoms: C_4  and  C_8 
REMARK    5  A    between atoms: C_5  and  C_11 
REMARK    6  A    between atoms: C_6  and  C_7 
REMARK    7  A    between atoms: C_6  and  C_9 
REMARK    8  A    between atoms: C_7  and  C_10 
REMARK    9  A    between atoms: C_8  and  C_12 
REMARK   10  A    between atoms: C_9  and  C_13 
REMARK   11  A    between atoms: C_10  and  C_14 
REMARK   12  A    between atoms: C_11  and  C_15 
REMARK   13  A    between atoms: C_12  and  C_16 
REMARK   14  A    between atoms: C_13  and  C_17 
REMARK   15  A    between atoms: C_14  and  C_18 
REMARK   16  A    between atoms: C_18  and  C_20 
ROOT
HETATM    1  O   UNL     1       4.580 -17.909  -9.770  1.00  0.00    -0.776 OA
HETATM    2  H   UNL     1       4.459 -17.581  -8.867  1.00  0.00     0.167 HD
ENDROOT
BRANCH   1   3
HETATM    3  C   UNL     1       5.052 -17.114 -10.752  1.00  0.00     0.139 C 
HETATM    4  O   UNL     1       4.270 -16.494 -11.460  1.00  0.00    -0.650 OA
BRANCH   3   5
HETATM    5  C   UNL     1       6.541 -17.009 -10.955  1.00  0.00     0.110 C 
BRANCH   5   6
HETATM    6  C   UNL     1       7.323 -16.901  -9.639  1.00  0.00     0.010 C 
BRANCH   6   7
HETATM    7  C   UNL     1       8.349 -15.763  -9.701  1.00  0.00     0.001 C 
BRANCH   7   8
HETATM    8  C   UNL     1       7.662 -14.398  -9.585  1.00  0.00     0.000 C 
BRANCH   8   9
HETATM    9  C   UNL     1       8.606 -13.267 -10.008  1.00  0.00     0.000 C 
BRANCH   9  10
HETATM   10  C   UNL     1       8.009 -12.467 -11.171  1.00  0.00     0.004 C 
BRANCH  10  11
HETATM   11  C   UNL     1       8.753 -12.745 -12.480  1.00  0.00     0.027 C 
BRANCH  11  12
HETATM   12  C   UNL     1       8.118 -13.924 -13.178  1.00  0.00    -0.031 C 
HETATM   13  C   UNL     1       8.674 -15.135 -13.382  1.00  0.00    -0.031 C 
BRANCH  13  14
HETATM   14  C   UNL     1      10.059 -15.585 -12.968  1.00  0.00     0.027 C 
BRANCH  14  15
HETATM   15  C   UNL     1      11.124 -15.092 -13.963  1.00  0.00     0.004 C 
BRANCH  15  16
HETATM   16  C   UNL     1      11.124 -15.832 -15.316  1.00  0.00     0.000 C 
BRANCH  16  17
HETATM   17  C   UNL     1      10.885 -14.902 -16.516  1.00  0.00     0.000 C 
BRANCH  17  18
HETATM   18  C   UNL     1       9.472 -15.086 -17.086  1.00  0.00     0.000 C 
BRANCH  18  19
HETATM   19  C   UNL     1       8.627 -13.824 -16.878  1.00  0.00    -0.000 C 
BRANCH  19  20
HETATM   20  C   UNL     1       9.491 -12.655 -16.390  1.00  0.00    -0.005 C 
HETATM   21  C   UNL     1       8.630 -11.452 -16.020  1.00  0.00     0.005 C 
ENDBRANCH  19  20
ENDBRANCH  18  19
ENDBRANCH  17  18
ENDBRANCH  16  17
ENDBRANCH  15  16
ENDBRANCH  14  15
ENDBRANCH  13  14
ENDBRANCH  11  12
ENDBRANCH  10  11
ENDBRANCH   9  10
ENDBRANCH   8   9
ENDBRANCH   7   8
ENDBRANCH   6   7
ENDBRANCH   5   6
ENDBRANCH   3   5
ENDBRANCH   1   3
TORSDOF 16
ENDMDL
MODEL 15
REMARK VINA RESULT:      -3.9     19.654     20.654
REMARK  16 active torsions:
REMARK  status: ('A' for Active; 'I' for Inactive)
REMARK    1  A    between atoms: O_1  and  C_20 
REMARK    2  A    between atoms: C_3  and  C_4 
REMARK    3  A    between atoms: C_3  and  C_5 
REMARK    4  A    between atoms: C_4  and  C_8 
REMARK    5  A    between atoms: C_5  and  C_11 
REMARK    6  A    between atoms: C_6  and  C_7 
REMARK    7  A    between atoms: C_6  and  C_9 
REMARK    8  A    between atoms: C_7  and  C_10 
REMARK    9  A    between atoms: C_8  and  C_12 
REMARK   10  A    between atoms: C_9  and  C_13 
REMARK   11  A    between atoms: C_10  and  C_14 
REMARK   12  A    between atoms: C_11  and  C_15 
REMARK   13  A    between atoms: C_12  and  C_16 
REMARK   14  A    between atoms: C_13  and  C_17 
REMARK   15  A    between atoms: C_14  and  C_18 
REMARK   16  A    between atoms: C_18  and  C_20 
ROOT
HETATM    1  O   UNL     1      40.320 -12.128 -16.533  1.00  0.00    -0.776 OA
HETATM    2  H   UNL     1      40.645 -11.675 -17.324  1.00  0.00     0.167 HD
ENDROOT
BRANCH   1   3
HETATM    3  C   UNL     1      40.421 -11.570 -15.309  1.00  0.00     0.139 C 
HETATM    4  O   UNL     1      41.128 -10.584 -15.148  1.00  0.00    -0.650 OA
BRANCH   3   5
HETATM    5  C   UNL     1      39.654 -12.176 -14.163  1.00  0.00     0.110 C 
BRANCH   5   6
HETATM    6  C   UNL     1      39.252 -11.149 -13.096  1.00  0.00     0.010 C 
BRANCH   6   7
HETATM    7  C   UNL     1      38.732 -11.844 -11.832  1.00  0.00     0.001 C 
BRANCH   7   8
HETATM    8  C   UNL     1      37.824 -10.908 -11.027  1.00  0.00     0.000 C 
BRANCH   8   9
HETATM    9  C   UNL     1      36.447 -10.772 -11.686  1.00  0.00     0.000 C 
BRANCH   9  10
HETATM   10  C   UNL     1      35.825 -12.150 -11.933  1.00  0.00     0.004 C 
BRANCH  10  11
HETATM   11  C   UNL     1      34.948 -12.150 -13.188  1.00  0.00     0.027 C 
BRANCH  11  12
HETATM   12  C   UNL     1      35.761 -12.624 -14.369  1.00  0.00    -0.031 C 
HETATM   13  C   UNL     1      36.301 -11.855 -15.336  1.00  0.00    -0.031 C 
BRANCH  13  14
HETATM   14  C   UNL     1      36.208 -10.349 -15.463  1.00  0.00     0.027 C 
BRANCH  14  15
HETATM   15  C   UNL     1      34.857  -9.923 -16.064  1.00  0.00     0.004 C 
BRANCH  15  16
HETATM   16  C   UNL     1      34.107  -8.850 -15.249  1.00  0.00     0.000 C 
BRANCH  16  17
HETATM   17  C   UNL     1      34.897  -8.357 -14.025  1.00  0.00     0.000 C 
BRANCH  17  18
HETATM   18  C   UNL     1      34.013  -8.332 -12.771  1.00  0.00     0.000 C 
BRANCH  18  19
HETATM   19  C   UNL     1      32.830  -9.297 -12.912  1.00  0.00    -0.000 C 
BRANCH  19  20
HETATM   20  C   UNL     1      32.031  -9.387 -11.607  1.00  0.00    -0.005 C 
HETATM   21  C   UNL     1      32.934  -9.753 -10.433  1.00  0.00     0.005 C 
ENDBRANCH  19  20
ENDBRANCH  18  19
ENDBRANCH  17  18
ENDBRANCH  16  17
ENDBRANCH  15  16
ENDBRANCH  14  15
ENDBRANCH  13  14
ENDBRANCH  11  12
ENDBRANCH  10  11
ENDBRANCH   9  10
ENDBRANCH   8   9
ENDBRANCH   7   8
ENDBRANCH   6   7
ENDBRANCH   5   6
ENDBRANCH   3   5
ENDBRANCH   1   3
TORSDOF 16
ENDMDL
MODEL 16
REMARK VINA RESULT:      -3.9     27.591     30.169
REMARK  16 active torsions:
REMARK  status: ('A' for Active; 'I' for Inactive)
REMARK    1  A    between atoms: O_1  and  C_20 
REMARK    2  A    between atoms: C_3  and  C_4 
REMARK    3  A    between atoms: C_3  and  C_5 
REMARK    4  A    between atoms: C_4  and  C_8 
REMARK    5  A    between atoms: C_5  and  C_11 
REMARK    6  A    between atoms: C_6  and  C_7 
REMARK    7  A    between atoms: C_6  and  C_9 
REMARK    8  A    between atoms: C_7  and  C_10 
REMARK    9  A    between atoms: C_8  and  C_12 
REMARK   10  A    between atoms: C_9  and  C_13 
REMARK   11  A    between atoms: C_10  and  C_14 
REMARK   12  A    between atoms: C_11  and  C_15 
REMARK   13  A    between atoms: C_12  and  C_16 
REMARK   14  A    between atoms: C_13  and  C_17 
REMARK   15  A    between atoms: C_14  and  C_18 
REMARK   16  A    between atoms: C_18  and  C_20 
ROOT
HETATM    1  O   UNL     1      15.071 -24.160  -3.329  1.00  0.00    -0.776 OA
HETATM    2  H   UNL     1      15.589 -23.666  -3.980  1.00  0.00     0.167 HD
ENDROOT
BRANCH   1   3
HETATM    3  C   UNL     1      14.461 -25.321  -3.648  1.00  0.00     0.139 C 
HETATM    4  O   UNL     1      13.766 -25.889  -2.817  1.00  0.00    -0.650 OA
BRANCH   3   5
HETATM    5  C   UNL     1      14.652 -25.892  -5.028  1.00  0.00     0.110 C 
BRANCH   5   6
HETATM    6  C   UNL     1      13.329 -26.143  -5.765  1.00  0.00     0.010 C 
BRANCH   6   7
HETATM    7  C   UNL     1      13.569 -26.369  -7.263  1.00  0.00     0.001 C 
BRANCH   7   8
HETATM    8  C   UNL     1      14.952 -25.857  -7.679  1.00  0.00     0.000 C 
BRANCH   8   9
HETATM    9  C   UNL     1      14.834 -24.708  -8.688  1.00  0.00     0.000 C 
BRANCH   9  10
HETATM   10  C   UNL     1      13.901 -25.090  -9.841  1.00  0.00     0.004 C 
BRANCH  10  11
HETATM   11  C   UNL     1      14.674 -25.727 -10.998  1.00  0.00     0.027 C 
BRANCH  11  12
HETATM   12  C   UNL     1      13.729 -26.548 -11.842  1.00  0.00    -0.031 C 
HETATM   13  C   UNL     1      13.752 -26.678 -13.184  1.00  0.00    -0.031 C 
BRANCH  13  14
HETATM   14  C   UNL     1      14.721 -26.026 -14.148  1.00  0.00     0.027 C 
BRANCH  14  15
HETATM   15  C   UNL     1      14.095 -24.788 -14.813  1.00  0.00     0.004 C 
BRANCH  15  16
HETATM   16  C   UNL     1      13.788 -24.959 -16.315  1.00  0.00     0.000 C 
BRANCH  16  17
HETATM   17  C   UNL     1      14.893 -25.707 -17.078  1.00  0.00     0.000 C 
BRANCH  17  18
HETATM   18  C   UNL     1      14.311 -26.506 -18.251  1.00  0.00     0.000 C 
BRANCH  18  19
HETATM   19  C   UNL     1      15.089 -26.231 -19.543  1.00  0.00    -0.000 C 
BRANCH  19  20
HETATM   20  C   UNL     1      14.271 -25.364 -20.507  1.00  0.00    -0.005 C 
HETATM   21  C   UNL     1      14.629 -25.667 -21.959  1.00  0.00     0.005 C 
ENDBRANCH  19  20
ENDBRANCH  18  19
ENDBRANCH  17  18
ENDBRANCH  16  17
ENDBRANCH  15  16
ENDBRANCH  14  15
ENDBRANCH  13  14
ENDBRANCH  11  12
ENDBRANCH  10  11
ENDBRANCH   9  10
ENDBRANCH   8   9
ENDBRANCH   7   8
ENDBRANCH   6   7
ENDBRANCH   5   6
ENDBRANCH   3   5
ENDBRANCH   1   3
TORSDOF 16
ENDMDL
MODEL 17
REMARK VINA RESULT:      -3.8     20.147     22.626
REMARK  16 active torsions:
REMARK  status: ('A' for Active; 'I' for Inactive)
REMARK    1  A    between atoms: O_1  and  C_20 
REMARK    2  A    between atoms: C_3  and  C_4 
REMARK    3  A    between atoms: C_3  and  C_5 
REMARK    4  A    between atoms: C_4  and  C_8 
REMARK    5  A    between atoms: C_5  and  C_11 
REMARK    6  A    between atoms: C_6  and  C_7 
REMARK    7  A    between atoms: C_6  and  C_9 
REMARK    8  A    between atoms: C_7  and  C_10 
REMARK    9  A    between atoms: C_8  and  C_12 
REMARK   10  A    between atoms: C_9  and  C_13 
REMARK   11  A    between atoms: C_10  and  C_14 
REMARK   12  A    between atoms: C_11  and  C_15 
REMARK   13  A    between atoms: C_12  and  C_16 
REMARK   14  A    between atoms: C_13  and  C_17 
REMARK   15  A    between atoms: C_14  and  C_18 
REMARK   16  A    between atoms: C_18  and  C_20 
ROOT
HETATM    1  O   UNL     1       3.170 -17.714  -8.053  1.00  0.00    -0.776 OA
HETATM    2  H   UNL     1       2.427 -17.094  -8.033  1.00  0.00     0.167 HD
ENDROOT
BRANCH   1   3
HETATM    3  C   UNL     1       4.312 -17.469  -7.379  1.00  0.00     0.139 C 
HETATM    4  O   UNL     1       4.308 -16.678  -6.444  1.00  0.00    -0.650 OA
BRANCH   3   5
HETATM    5  C   UNL     1       5.574 -18.178  -7.795  1.00  0.00     0.110 C 
BRANCH   5   6
HETATM    6  C   UNL     1       6.806 -17.263  -7.802  1.00  0.00     0.010 C 
BRANCH   6   7
HETATM    7  C   UNL     1       8.100 -18.082  -7.715  1.00  0.00     0.001 C 
BRANCH   7   8
HETATM    8  C   UNL     1       9.293 -17.278  -8.242  1.00  0.00     0.000 C 
BRANCH   8   9
HETATM    9  C   UNL     1       8.865 -16.331  -9.370  1.00  0.00     0.000 C 
BRANCH   9  10
HETATM   10  C   UNL     1       9.976 -16.197 -10.417  1.00  0.00     0.004 C 
BRANCH  10  11
HETATM   11  C   UNL     1      11.354 -16.088  -9.759  1.00  0.00     0.027 C 
BRANCH  11  12
HETATM   12  C   UNL     1      11.680 -14.634  -9.514  1.00  0.00    -0.031 C 
HETATM   13  C   UNL     1      11.681 -13.997  -8.325  1.00  0.00    -0.031 C 
BRANCH  13  14
HETATM   14  C   UNL     1      11.350 -14.590  -6.972  1.00  0.00     0.027 C 
BRANCH  14  15
HETATM   15  C   UNL     1      10.325 -13.723  -6.221  1.00  0.00     0.004 C 
BRANCH  15  16
HETATM   16  C   UNL     1       8.929 -14.364  -6.083  1.00  0.00     0.000 C 
BRANCH  16  17
HETATM   17  C   UNL     1       7.875 -13.724  -7.001  1.00  0.00     0.000 C 
BRANCH  17  18
HETATM   18  C   UNL     1       8.462 -12.536  -7.774  1.00  0.00     0.000 C 
BRANCH  18  19
HETATM   19  C   UNL     1       8.430 -12.793  -9.285  1.00  0.00    -0.000 C 
BRANCH  19  20
HETATM   20  C   UNL     1       9.272 -11.756 -10.039  1.00  0.00    -0.005 C 
HETATM   21  C   UNL     1       8.860 -11.675 -11.506  1.00  0.00     0.005 C 
ENDBRANCH  19  20
ENDBRANCH  18  19
ENDBRANCH  17  18
ENDBRANCH  16  17
ENDBRANCH  15  16
ENDBRANCH  14  15
ENDBRANCH  13  14
ENDBRANCH  11  12
ENDBRANCH  10  11
ENDBRANCH   9  10
ENDBRANCH   8   9
ENDBRANCH   7   8
ENDBRANCH   6   7
ENDBRANCH   5   6
ENDBRANCH   3   5
ENDBRANCH   1   3
TORSDOF 16
ENDMDL
MODEL 18
REMARK VINA RESULT:      -3.8     20.253     21.647
REMARK  16 active torsions:
REMARK  status: ('A' for Active; 'I' for Inactive)
REMARK    1  A    between atoms: O_1  and  C_20 
REMARK    2  A    between atoms: C_3  and  C_4 
REMARK    3  A    between atoms: C_3  and  C_5 
REMARK    4  A    between atoms: C_4  and  C_8 
REMARK    5  A    between atoms: C_5  and  C_11 
REMARK    6  A    between atoms: C_6  and  C_7 
REMARK    7  A    between atoms: C_6  and  C_9 
REMARK    8  A    between atoms: C_7  and  C_10 
REMARK    9  A    between atoms: C_8  and  C_12 
REMARK   10  A    between atoms: C_9  and  C_13 
REMARK   11  A    between atoms: C_10  and  C_14 
REMARK   12  A    between atoms: C_11  and  C_15 
REMARK   13  A    between atoms: C_12  and  C_16 
REMARK   14  A    between atoms: C_13  and  C_17 
REMARK   15  A    between atoms: C_14  and  C_18 
REMARK   16  A    between atoms: C_18  and  C_20 
ROOT
HETATM    1  O   UNL     1      38.972 -11.515 -11.523  1.00  0.00    -0.776 OA
HETATM    2  H   UNL     1      38.846 -12.474 -11.498  1.00  0.00     0.167 HD
ENDROOT
BRANCH   1   3
HETATM    3  C   UNL     1      40.136 -10.966 -11.928  1.00  0.00     0.139 C 
HETATM    4  O   UNL     1      41.061 -10.850 -11.136  1.00  0.00    -0.650 OA
BRANCH   3   5
HETATM    5  C   UNL     1      40.269 -10.508 -13.357  1.00  0.00     0.110 C 
BRANCH   5   6
HETATM    6  C   UNL     1      39.718 -11.521 -14.369  1.00  0.00     0.010 C 
BRANCH   6   7
HETATM    7  C   UNL     1      40.707 -11.741 -15.521  1.00  0.00     0.001 C 
BRANCH   7   8
HETATM    8  C   UNL     1      40.214 -11.060 -16.802  1.00  0.00     0.000 C 
BRANCH   8   9
HETATM    9  C   UNL     1      39.753 -12.095 -17.835  1.00  0.00     0.000 C 
BRANCH   9  10
HETATM   10  C   UNL     1      38.679 -11.504 -18.754  1.00  0.00     0.004 C 
BRANCH  10  11
HETATM   11  C   UNL     1      37.687 -10.640 -17.971  1.00  0.00     0.027 C 
BRANCH  11  12
HETATM   12  C   UNL     1      36.695 -11.531 -17.263  1.00  0.00    -0.031 C 
HETATM   13  C   UNL     1      36.187 -11.350 -16.028  1.00  0.00    -0.031 C 
BRANCH  13  14
HETATM   14  C   UNL     1      36.499 -10.220 -15.069  1.00  0.00     0.027 C 
BRANCH  14  15
HETATM   15  C   UNL     1      35.249  -9.371 -14.783  1.00  0.00     0.004 C 
BRANCH  15  16
HETATM   16  C   UNL     1      34.241 -10.027 -13.817  1.00  0.00     0.000 C 
BRANCH  16  17
HETATM   17  C   UNL     1      32.781  -9.642 -14.110  1.00  0.00     0.000 C 
BRANCH  17  18
HETATM   18  C   UNL     1      32.272 -10.330 -15.383  1.00  0.00     0.000 C 
BRANCH  18  19
HETATM   19  C   UNL     1      31.973  -9.303 -16.481  1.00  0.00    -0.000 C 
BRANCH  19  20
HETATM   20  C   UNL     1      32.864  -9.529 -17.708  1.00  0.00    -0.005 C 
HETATM   21  C   UNL     1      33.052 -11.018 -17.984  1.00  0.00     0.005 C 
ENDBRANCH  19  20
ENDBRANCH  18  19
ENDBRANCH  17  18
ENDBRANCH  16  17
ENDBRANCH  15  16
ENDBRANCH  14  15
ENDBRANCH  13  14
ENDBRANCH  11  12
ENDBRANCH  10  11
ENDBRANCH   9  10
ENDBRANCH   8   9
ENDBRANCH   7   8
ENDBRANCH   6   7
ENDBRANCH   5   6
ENDBRANCH   3   5
ENDBRANCH   1   3
TORSDOF 16
ENDMDL
MODEL 19
REMARK VINA RESULT:      -3.8     31.782     32.665
REMARK  16 active torsions:
REMARK  status: ('A' for Active; 'I' for Inactive)
REMARK    1  A    between atoms: O_1  and  C_20 
REMARK    2  A    between atoms: C_3  and  C_4 
REMARK    3  A    between atoms: C_3  and  C_5 
REMARK    4  A    between atoms: C_4  and  C_8 
REMARK    5  A    between atoms: C_5  and  C_11 
REMARK    6  A    between atoms: C_6  and  C_7 
REMARK    7  A    between atoms: C_6  and  C_9 
REMARK    8  A    between atoms: C_7  and  C_10 
REMARK    9  A    between atoms: C_8  and  C_12 
REMARK   10  A    between atoms: C_9  and  C_13 
REMARK   11  A    between atoms: C_10  and  C_14 
REMARK   12  A    between atoms: C_11  and  C_15 
REMARK   13  A    between atoms: C_12  and  C_16 
REMARK   14  A    between atoms: C_13  and  C_17 
REMARK   15  A    between atoms: C_14  and  C_18 
REMARK   16  A    between atoms: C_18  and  C_20 
ROOT
HETATM    1  O   UNL     1      48.533 -15.114 -10.705  1.00  0.00    -0.776 OA
HETATM    2  H   UNL     1      48.978 -14.737 -11.478  1.00  0.00     0.167 HD
ENDROOT
BRANCH   1   3
HETATM    3  C   UNL     1      48.686 -16.412 -10.368  1.00  0.00     0.139 C 
HETATM    4  O   UNL     1      47.944 -16.914  -9.534  1.00  0.00    -0.650 OA
BRANCH   3   5
HETATM    5  C   UNL     1      49.773 -17.217 -11.030  1.00  0.00     0.110 C 
BRANCH   5   6
HETATM    6  C   UNL     1      49.242 -18.188 -12.093  1.00  0.00     0.010 C 
BRANCH   6   7
HETATM    7  C   UNL     1      48.878 -17.444 -13.384  1.00  0.00     0.001 C 
BRANCH   7   8
HETATM    8  C   UNL     1      49.397 -18.196 -14.614  1.00  0.00     0.000 C 
BRANCH   8   9
HETATM    9  C   UNL     1      49.676 -17.232 -15.773  1.00  0.00     0.000 C 
BRANCH   9  10
HETATM   10  C   UNL     1      48.540 -16.215 -15.919  1.00  0.00     0.004 C 
BRANCH  10  11
HETATM   11  C   UNL     1      47.373 -16.792 -16.724  1.00  0.00     0.027 C 
BRANCH  11  12
HETATM   12  C   UNL     1      46.072 -16.244 -16.188  1.00  0.00    -0.031 C 
HETATM   13  C   UNL     1      44.895 -16.896 -16.104  1.00  0.00    -0.031 C 
BRANCH  13  14
HETATM   14  C   UNL     1      44.608 -18.319 -16.535  1.00  0.00     0.027 C 
BRANCH  14  15
HETATM   15  C   UNL     1      44.248 -19.204 -15.329  1.00  0.00     0.004 C 
BRANCH  15  16
HETATM   16  C   UNL     1      45.211 -19.071 -14.132  1.00  0.00     0.000 C 
BRANCH  16  17
HETATM   17  C   UNL     1      44.514 -18.611 -12.841  1.00  0.00     0.000 C 
BRANCH  17  18
HETATM   18  C   UNL     1      45.508 -17.939 -11.884  1.00  0.00     0.000 C 
BRANCH  18  19
HETATM   19  C   UNL     1      45.184 -16.451 -11.711  1.00  0.00    -0.000 C 
BRANCH  19  20
HETATM   20  C   UNL     1      43.669 -16.215 -11.681  1.00  0.00    -0.005 C 
HETATM   21  C   UNL     1      43.134 -16.256 -10.253  1.00  0.00     0.005 C 
ENDBRANCH  19  20
ENDBRANCH  18  19
ENDBRANCH  17  18
ENDBRANCH  16  17
ENDBRANCH  15  16
ENDBRANCH  14  15
ENDBRANCH  13  14
ENDBRANCH  11  12
ENDBRANCH  10  11
ENDBRANCH   9  10
ENDBRANCH   8   9
ENDBRANCH   7   8
ENDBRANCH   6   7
ENDBRANCH   5   6
ENDBRANCH   3   5
ENDBRANCH   1   3
TORSDOF 16
ENDMDL
MODEL 20
REMARK VINA RESULT:      -3.8     18.014     19.499
REMARK  16 active torsions:
REMARK  status: ('A' for Active; 'I' for Inactive)
REMARK    1  A    between atoms: O_1  and  C_20 
REMARK    2  A    between atoms: C_3  and  C_4 
REMARK    3  A    between atoms: C_3  and  C_5 
REMARK    4  A    between atoms: C_4  and  C_8 
REMARK    5  A    between atoms: C_5  and  C_11 
REMARK    6  A    between atoms: C_6  and  C_7 
REMARK    7  A    between atoms: C_6  and  C_9 
REMARK    8  A    between atoms: C_7  and  C_10 
REMARK    9  A    between atoms: C_8  and  C_12 
REMARK   10  A    between atoms: C_9  and  C_13 
REMARK   11  A    between atoms: C_10  and  C_14 
REMARK   12  A    between atoms: C_11  and  C_15 
REMARK   13  A    between atoms: C_12  and  C_16 
REMARK   14  A    between atoms: C_13  and  C_17 
REMARK   15  A    between atoms: C_14  and  C_18 
REMARK   16  A    between atoms: C_18  and  C_20 
ROOT
HETATM    1  O   UNL     1      10.019 -15.709 -22.657  1.00  0.00    -0.776 OA
HETATM    2  H   UNL     1       9.076 -15.878 -22.797  1.00  0.00     0.167 HD
ENDROOT
BRANCH   1   3
HETATM    3  C   UNL     1      10.456 -14.548 -22.127  1.00  0.00     0.139 C 
HETATM    4  O   UNL     1      11.364 -14.559 -21.307  1.00  0.00    -0.650 OA
BRANCH   3   5
HETATM    5  C   UNL     1       9.812 -13.258 -22.561  1.00  0.00     0.110 C 
BRANCH   5   6
HETATM    6  C   UNL     1       8.308 -13.203 -22.261  1.00  0.00     0.010 C 
BRANCH   6   7
HETATM    7  C   UNL     1       8.036 -12.456 -20.949  1.00  0.00     0.001 C 
BRANCH   7   8
HETATM    8  C   UNL     1       9.278 -11.682 -20.493  1.00  0.00     0.000 C 
BRANCH   8   9
HETATM    9  C   UNL     1       9.295 -11.515 -18.969  1.00  0.00     0.000 C 
BRANCH   9  10
HETATM   10  C   UNL     1       9.532 -12.861 -18.278  1.00  0.00     0.004 C 
BRANCH  10  11
HETATM   11  C   UNL     1       8.541 -13.082 -17.132  1.00  0.00     0.027 C 
BRANCH  11  12
HETATM   12  C   UNL     1       8.570 -11.890 -16.206  1.00  0.00    -0.031 C 
HETATM   13  C   UNL     1       9.250 -11.785 -15.047  1.00  0.00    -0.031 C 
BRANCH  13  14
HETATM   14  C   UNL     1      10.130 -12.837 -14.407  1.00  0.00     0.027 C 
BRANCH  14  15
HETATM   15  C   UNL     1      11.509 -12.898 -15.088  1.00  0.00     0.004 C 
BRANCH  15  16
HETATM   16  C   UNL     1      12.294 -14.199 -14.820  1.00  0.00     0.000 C 
BRANCH  16  17
HETATM   17  C   UNL     1      11.392 -15.438 -14.700  1.00  0.00     0.000 C 
BRANCH  17  18
HETATM   18  C   UNL     1      11.070 -16.023 -16.082  1.00  0.00     0.000 C 
BRANCH  18  19
HETATM   19  C   UNL     1      11.478 -17.499 -16.162  1.00  0.00    -0.000 C 
BRANCH  19  20
HETATM   20  C   UNL     1      12.232 -17.932 -14.899  1.00  0.00    -0.005 C 
HETATM   21  C   UNL     1      13.531 -18.651 -15.253  1.00  0.00     0.005 C 
ENDBRANCH  19  20
ENDBRANCH  18  19
ENDBRANCH  17  18
ENDBRANCH  16  17
ENDBRANCH  15  16
ENDBRANCH  14  15
ENDBRANCH  13  14
ENDBRANCH  11  12
ENDBRANCH  10  11
ENDBRANCH   9  10
ENDBRANCH   8   9
ENDBRANCH   7   8
ENDBRANCH   6   7
ENDBRANCH   5   6
ENDBRANCH   3   5
ENDBRANCH   1   3
TORSDOF 16
ENDMDL
