MODEL 1
REMARK VINA RESULT:      -8.0      0.000      0.000
REMARK  2 active torsions:
REMARK  status: ('A' for Active; 'I' for Inactive)
REMARK    1  A    between atoms: N_3  and  C_15 
REMARK    2  A    between atoms: C_5  and  C_7 
ROOT
HETATM    1  S   UNL     1       3.443   9.497 -12.015  1.00  0.00    -0.069 SA
HETATM    2  N   UNL     1       5.925   9.999 -12.118  1.00  0.00    -0.344 N 
HETATM    3  C   UNL     1       5.581   9.889 -10.795  1.00  0.00     0.052 A 
HETATM    4  C   UNL     1       4.841   9.777 -12.939  1.00  0.00     0.087 A 
HETATM    5  C   UNL     1       4.244   9.613 -10.557  1.00  0.00     0.034 A 
HETATM    6  C   UNL     1       6.452  10.046  -9.703  1.00  0.00     0.031 A 
HETATM    7  C   UNL     1       3.718   9.477  -9.275  1.00  0.00     0.028 A 
HETATM    8  C   UNL     1       7.286  10.377 -12.523  1.00  0.00     0.157 C 
HETATM    9  C   UNL     1       4.585   9.627  -8.177  1.00  0.00    -0.061 A 
HETATM   10  C   UNL     1       5.949   9.912  -8.398  1.00  0.00     0.009 A 
HETATM   11  C   UNL     1       4.074   9.490  -6.774  1.00  0.00     0.048 C 
ENDROOT
BRANCH   4  12
HETATM   12  C   UNL     1       4.802   9.733 -14.436  1.00  0.00    -0.002 A 
HETATM   13  C   UNL     1       3.608   9.826 -15.174  1.00  0.00     0.016 A 
HETATM   14  C   UNL     1       3.619   9.803 -16.572  1.00  0.00     0.030 A 
HETATM   15  C   UNL     1       4.827   9.694 -17.292  1.00  0.00     0.029 A 
HETATM   16  C   UNL     1       6.024   9.623 -16.549  1.00  0.00     0.030 A 
HETATM   17  C   UNL     1       6.010   9.651 -15.152  1.00  0.00     0.016 A 
BRANCH  15  18
HETATM   18  N   UNL     1       4.840   9.668 -18.736  1.00  0.00    -0.390 N 
HETATM   19  C   UNL     1       6.100   9.669 -19.467  1.00  0.00     0.149 C 
HETATM   20  C   UNL     1       3.593   9.642 -19.489  1.00  0.00     0.149 C 
ENDBRANCH  15  18
ENDBRANCH   4  12
TORSDOF 2
ENDMDL
MODEL 2
REMARK VINA RESULT:      -7.5     25.929     26.746
REMARK  2 active torsions:
REMARK  status: ('A' for Active; 'I' for Inactive)
REMARK    1  A    between atoms: N_3  and  C_15 
REMARK    2  A    between atoms: C_5  and  C_7 
ROOT
HETATM    1  S   UNL     1      31.696   5.094 -12.720  1.00  0.00    -0.069 SA
HETATM    2  N   UNL     1      30.979   7.487 -13.145  1.00  0.00    -0.344 N 
HETATM    3  C   UNL     1      30.998   7.297 -11.787  1.00  0.00     0.052 A 
HETATM    4  C   UNL     1      31.373   6.352 -13.817  1.00  0.00     0.087 A 
HETATM    5  C   UNL     1      31.374   6.028 -11.377  1.00  0.00     0.034 A 
HETATM    6  C   UNL     1      30.661   8.258 -10.817  1.00  0.00     0.031 A 
HETATM    7  C   UNL     1      31.440   5.657 -10.037  1.00  0.00     0.028 A 
HETATM    8  C   UNL     1      30.515   8.752 -13.731  1.00  0.00     0.157 C 
HETATM    9  C   UNL     1      31.110   6.614  -9.060  1.00  0.00    -0.061 A 
HETATM   10  C   UNL     1      30.721   7.911  -9.457  1.00  0.00     0.009 A 
HETATM   11  C   UNL     1      31.165   6.270  -7.602  1.00  0.00     0.048 C 
ENDROOT
BRANCH   4  12
HETATM   12  C   UNL     1      31.559   6.160 -15.291  1.00  0.00    -0.002 A 
HETATM   13  C   UNL     1      32.723   6.553 -15.974  1.00  0.00     0.016 A 
HETATM   14  C   UNL     1      32.863   6.335 -17.348  1.00  0.00     0.030 A 
HETATM   15  C   UNL     1      31.847   5.704 -18.097  1.00  0.00     0.029 A 
HETATM   16  C   UNL     1      30.690   5.291 -17.403  1.00  0.00     0.030 A 
HETATM   17  C   UNL     1      30.555   5.507 -16.030  1.00  0.00     0.016 A 
BRANCH  15  18
HETATM   18  N   UNL     1      31.990   5.479 -19.516  1.00  0.00    -0.390 N 
HETATM   19  C   UNL     1      30.817   5.302 -20.361  1.00  0.00     0.149 C 
HETATM   20  C   UNL     1      33.310   5.423 -20.129  1.00  0.00     0.149 C 
ENDBRANCH  15  18
ENDBRANCH   4  12
TORSDOF 2
ENDMDL
MODEL 3
REMARK VINA RESULT:      -7.5     26.320     27.192
REMARK  2 active torsions:
REMARK  status: ('A' for Active; 'I' for Inactive)
REMARK    1  A    between atoms: N_3  and  C_15 
REMARK    2  A    between atoms: C_5  and  C_7 
ROOT
HETATM    1  S   UNL     1      30.626   5.163 -12.343  1.00  0.00    -0.069 SA
HETATM    2  N   UNL     1      32.599   6.745 -12.495  1.00  0.00    -0.344 N 
HETATM    3  C   UNL     1      32.333   6.544 -11.164  1.00  0.00     0.052 A 
HETATM    4  C   UNL     1      31.747   6.017 -13.293  1.00  0.00     0.087 A 
HETATM    5  C   UNL     1      31.271   5.695 -10.900  1.00  0.00     0.034 A 
HETATM    6  C   UNL     1      33.024   7.130 -10.089  1.00  0.00     0.031 A 
HETATM    7  C   UNL     1      30.855   5.385  -9.608  1.00  0.00     0.028 A 
HETATM    8  C   UNL     1      33.638   7.690 -12.930  1.00  0.00     0.157 C 
HETATM    9  C   UNL     1      31.546   5.963  -8.526  1.00  0.00    -0.061 A 
HETATM   10  C   UNL     1      32.628   6.834  -8.775  1.00  0.00     0.009 A 
HETATM   11  C   UNL     1      31.143   5.664  -7.114  1.00  0.00     0.048 C 
ENDROOT
BRANCH   4  12
HETATM   12  C   UNL     1      31.745   5.897 -14.787  1.00  0.00    -0.002 A 
HETATM   13  C   UNL     1      30.815   6.560 -15.607  1.00  0.00     0.016 A 
HETATM   14  C   UNL     1      30.864   6.438 -16.999  1.00  0.00     0.030 A 
HETATM   15  C   UNL     1      31.852   5.654 -17.631  1.00  0.00     0.029 A 
HETATM   16  C   UNL     1      32.797   5.009 -16.805  1.00  0.00     0.030 A 
HETATM   17  C   UNL     1      32.748   5.137 -15.415  1.00  0.00     0.016 A 
BRANCH  15  18
HETATM   18  N   UNL     1      31.903   5.527 -19.069  1.00  0.00    -0.390 N 
HETATM   19  C   UNL     1      33.179   5.550 -19.771  1.00  0.00     0.149 C 
HETATM   20  C   UNL     1      30.680   5.373 -19.844  1.00  0.00     0.149 C 
ENDBRANCH  15  18
ENDBRANCH   4  12
TORSDOF 2
ENDMDL
MODEL 4
REMARK VINA RESULT:      -7.4     26.335     28.237
REMARK  2 active torsions:
REMARK  status: ('A' for Active; 'I' for Inactive)
REMARK    1  A    between atoms: N_3  and  C_15 
REMARK    2  A    between atoms: C_5  and  C_7 
ROOT
HETATM    1  S   UNL     1      30.519   5.332 -16.211  1.00  0.00    -0.069 SA
HETATM    2  N   UNL     1      32.823   6.386 -16.181  1.00  0.00    -0.344 N 
HETATM    3  C   UNL     1      32.492   6.156 -17.493  1.00  0.00     0.052 A 
HETATM    4  C   UNL     1      31.809   6.004 -15.332  1.00  0.00     0.087 A 
HETATM    5  C   UNL     1      31.248   5.577 -17.691  1.00  0.00     0.034 A 
HETATM    6  C   UNL     1      33.299   6.441 -18.608  1.00  0.00     0.031 A 
HETATM    7  C   UNL     1      30.754   5.266 -18.954  1.00  0.00     0.028 A 
HETATM    8  C   UNL     1      34.145   6.911 -15.811  1.00  0.00     0.157 C 
HETATM    9  C   UNL     1      31.554   5.554 -20.076  1.00  0.00    -0.061 A 
HETATM   10  C   UNL     1      32.824   6.140 -19.894  1.00  0.00     0.009 A 
HETATM   11  C   UNL     1      31.071   5.242 -21.460  1.00  0.00     0.048 C 
ENDROOT
BRANCH   4  12
HETATM   12  C   UNL     1      31.738   6.150 -13.843  1.00  0.00    -0.002 A 
HETATM   13  C   UNL     1      31.037   7.191 -13.208  1.00  0.00     0.016 A 
HETATM   14  C   UNL     1      30.979   7.277 -11.814  1.00  0.00     0.030 A 
HETATM   15  C   UNL     1      31.611   6.318 -10.994  1.00  0.00     0.029 A 
HETATM   16  C   UNL     1      32.293   5.263 -11.635  1.00  0.00     0.030 A 
HETATM   17  C   UNL     1      32.346   5.178 -13.028  1.00  0.00     0.016 A 
BRANCH  15  18
HETATM   18  N   UNL     1      31.551   6.406  -9.554  1.00  0.00    -0.390 N 
HETATM   19  C   UNL     1      32.080   5.333  -8.723  1.00  0.00     0.149 C 
HETATM   20  C   UNL     1      30.961   7.568  -8.905  1.00  0.00     0.149 C 
ENDBRANCH  15  18
ENDBRANCH   4  12
TORSDOF 2
ENDMDL
MODEL 5
REMARK VINA RESULT:      -7.4     26.259     28.130
REMARK  2 active torsions:
REMARK  status: ('A' for Active; 'I' for Inactive)
REMARK    1  A    between atoms: N_3  and  C_15 
REMARK    2  A    between atoms: C_5  and  C_7 
ROOT
HETATM    1  S   UNL     1      30.451   5.280 -16.271  1.00  0.00    -0.069 SA
HETATM    2  N   UNL     1      32.757   6.320 -16.121  1.00  0.00    -0.344 N 
HETATM    3  C   UNL     1      32.486   6.108 -17.449  1.00  0.00     0.052 A 
HETATM    4  C   UNL     1      31.702   5.935 -15.325  1.00  0.00     0.087 A 
HETATM    5  C   UNL     1      31.250   5.538 -17.711  1.00  0.00     0.034 A 
HETATM    6  C   UNL     1      33.346   6.401 -18.522  1.00  0.00     0.031 A 
HETATM    7  C   UNL     1      30.814   5.244 -19.000  1.00  0.00     0.028 A 
HETATM    8  C   UNL     1      34.062   6.834 -15.683  1.00  0.00     0.157 C 
HETATM    9  C   UNL     1      31.667   5.540 -20.080  1.00  0.00    -0.061 A 
HETATM   10  C   UNL     1      32.931   6.117 -19.832  1.00  0.00     0.009 A 
HETATM   11  C   UNL     1      31.248   5.246 -21.489  1.00  0.00     0.048 C 
ENDROOT
BRANCH   4  12
HETATM   12  C   UNL     1      31.562   6.064 -13.838  1.00  0.00    -0.002 A 
HETATM   13  C   UNL     1      32.010   5.080 -12.939  1.00  0.00     0.016 A 
HETATM   14  C   UNL     1      31.880   5.252 -11.557  1.00  0.00     0.030 A 
HETATM   15  C   UNL     1      31.304   6.420 -11.016  1.00  0.00     0.029 A 
HETATM   16  C   UNL     1      30.877   7.415 -11.921  1.00  0.00     0.030 A 
HETATM   17  C   UNL     1      31.013   7.242 -13.301  1.00  0.00     0.016 A 
BRANCH  15  18
HETATM   18  N   UNL     1      31.168   6.598  -9.589  1.00  0.00    -0.390 N 
HETATM   19  C   UNL     1      31.310   5.465  -8.684  1.00  0.00     0.149 C 
HETATM   20  C   UNL     1      30.886   7.912  -9.028  1.00  0.00     0.149 C 
ENDBRANCH  15  18
ENDBRANCH   4  12
TORSDOF 2
ENDMDL
MODEL 6
REMARK VINA RESULT:      -7.2     26.535     27.305
REMARK  2 active torsions:
REMARK  status: ('A' for Active; 'I' for Inactive)
REMARK    1  A    between atoms: N_3  and  C_15 
REMARK    2  A    between atoms: C_5  and  C_7 
ROOT
HETATM    1  S   UNL     1      30.457   5.442 -16.443  1.00  0.00    -0.069 SA
HETATM    2  N   UNL     1      32.623   6.751 -16.573  1.00  0.00    -0.344 N 
HETATM    3  C   UNL     1      32.420   6.420 -15.257  1.00  0.00     0.052 A 
HETATM    4  C   UNL     1      31.623   6.252 -17.378  1.00  0.00     0.087 A 
HETATM    5  C   UNL     1      31.266   5.694 -15.007  1.00  0.00     0.034 A 
HETATM    6  C   UNL     1      33.258   6.765 -14.183  1.00  0.00     0.031 A 
HETATM    7  C   UNL     1      30.898   5.280 -13.730  1.00  0.00     0.028 A 
HETATM    8  C   UNL     1      33.755   7.596 -16.980  1.00  0.00     0.157 C 
HETATM    9  C   UNL     1      31.735   5.617 -12.650  1.00  0.00    -0.061 A 
HETATM   10  C   UNL     1      32.912   6.359 -12.884  1.00  0.00     0.009 A 
HETATM   11  C   UNL     1      31.388   5.197 -11.253  1.00  0.00     0.048 C 
ENDROOT
BRANCH   4  12
HETATM   12  C   UNL     1      31.506   6.325 -18.870  1.00  0.00    -0.002 A 
HETATM   13  C   UNL     1      31.904   5.280 -19.721  1.00  0.00     0.016 A 
HETATM   14  C   UNL     1      31.755   5.381 -21.108  1.00  0.00     0.030 A 
HETATM   15  C   UNL     1      31.193   6.531 -21.702  1.00  0.00     0.029 A 
HETATM   16  C   UNL     1      30.774   7.568 -20.842  1.00  0.00     0.030 A 
HETATM   17  C   UNL     1      30.920   7.461 -19.457  1.00  0.00     0.016 A 
BRANCH  15  18
HETATM   18  N   UNL     1      31.040   6.637 -23.134  1.00  0.00    -0.390 N 
HETATM   19  C   UNL     1      30.858   7.937 -23.766  1.00  0.00     0.149 C 
HETATM   20  C   UNL     1      31.064   5.447 -23.973  1.00  0.00     0.149 C 
ENDBRANCH  15  18
ENDBRANCH   4  12
TORSDOF 2
ENDMDL
MODEL 7
REMARK VINA RESULT:      -7.2     26.080     27.986
REMARK  2 active torsions:
REMARK  status: ('A' for Active; 'I' for Inactive)
REMARK    1  A    between atoms: N_3  and  C_15 
REMARK    2  A    between atoms: C_5  and  C_7 
ROOT
HETATM    1  S   UNL     1      31.911   5.047 -12.410  1.00  0.00    -0.069 SA
HETATM    2  N   UNL     1      31.172   7.440 -12.029  1.00  0.00    -0.344 N 
HETATM    3  C   UNL     1      31.063   7.184 -13.373  1.00  0.00     0.052 A 
HETATM    4  C   UNL     1      31.610   6.332 -11.340  1.00  0.00     0.087 A 
HETATM    5  C   UNL     1      31.432   5.904 -13.757  1.00  0.00     0.034 A 
HETATM    6  C   UNL     1      30.636   8.096 -14.353  1.00  0.00     0.031 A 
HETATM    7  C   UNL     1      31.393   5.474 -15.080  1.00  0.00     0.028 A 
HETATM    8  C   UNL     1      30.904   8.779 -11.486  1.00  0.00     0.157 C 
HETATM    9  C   UNL     1      30.960   6.379 -16.067  1.00  0.00    -0.061 A 
HETATM   10  C   UNL     1      30.584   7.688 -15.695  1.00  0.00     0.009 A 
HETATM   11  C   UNL     1      30.897   5.970 -17.507  1.00  0.00     0.048 C 
ENDROOT
BRANCH   4  12
HETATM   12  C   UNL     1      31.791   6.168  -9.862  1.00  0.00    -0.002 A 
HETATM   13  C   UNL     1      32.881   6.713  -9.159  1.00  0.00     0.016 A 
HETATM   14  C   UNL     1      33.000   6.554  -7.775  1.00  0.00     0.030 A 
HETATM   15  C   UNL     1      32.028   5.851  -7.032  1.00  0.00     0.029 A 
HETATM   16  C   UNL     1      30.925   5.325  -7.738  1.00  0.00     0.030 A 
HETATM   17  C   UNL     1      30.807   5.490  -9.120  1.00  0.00     0.016 A 
BRANCH  15  18
HETATM   18  N   UNL     1      32.151   5.686  -5.603  1.00  0.00    -0.390 N 
HETATM   19  C   UNL     1      30.984   5.367  -4.791  1.00  0.00     0.149 C 
HETATM   20  C   UNL     1      33.442   5.835  -4.946  1.00  0.00     0.149 C 
ENDBRANCH  15  18
ENDBRANCH   4  12
TORSDOF 2
ENDMDL
MODEL 8
REMARK VINA RESULT:      -7.2     26.746     28.498
REMARK  2 active torsions:
REMARK  status: ('A' for Active; 'I' for Inactive)
REMARK    1  A    between atoms: N_3  and  C_15 
REMARK    2  A    between atoms: C_5  and  C_7 
ROOT
HETATM    1  S   UNL     1      31.332   5.176 -12.758  1.00  0.00    -0.069 SA
HETATM    2  N   UNL     1      33.120   6.943 -12.444  1.00  0.00    -0.344 N 
HETATM    3  C   UNL     1      33.061   6.649 -13.783  1.00  0.00     0.052 A 
HETATM    4  C   UNL     1      32.191   6.221 -11.729  1.00  0.00     0.087 A 
HETATM    5  C   UNL     1      32.124   5.690 -14.132  1.00  0.00     0.034 A 
HETATM    6  C   UNL     1      33.864   7.218 -14.786  1.00  0.00     0.031 A 
HETATM    7  C   UNL     1      31.934   5.263 -15.443  1.00  0.00     0.028 A 
HETATM    8  C   UNL     1      34.125   7.874 -11.912  1.00  0.00     0.157 C 
HETATM    9  C   UNL     1      32.730   5.833 -16.454  1.00  0.00    -0.061 A 
HETATM   10  C   UNL     1      33.693   6.808 -16.118  1.00  0.00     0.009 A 
HETATM   11  C   UNL     1      32.568   5.412 -17.884  1.00  0.00     0.048 C 
ENDROOT
BRANCH   4  12
HETATM   12  C   UNL     1      31.880   6.295 -10.265  1.00  0.00    -0.002 A 
HETATM   13  C   UNL     1      32.311   5.328  -9.340  1.00  0.00     0.016 A 
HETATM   14  C   UNL     1      32.017   5.448  -7.979  1.00  0.00     0.030 A 
HETATM   15  C   UNL     1      31.286   6.548  -7.483  1.00  0.00     0.029 A 
HETATM   16  C   UNL     1      30.875   7.528  -8.411  1.00  0.00     0.030 A 
HETATM   17  C   UNL     1      31.175   7.407  -9.770  1.00  0.00     0.016 A 
BRANCH  15  18
HETATM   18  N   UNL     1      30.980   6.673  -6.077  1.00  0.00    -0.390 N 
HETATM   19  C   UNL     1      31.041   5.513  -5.198  1.00  0.00     0.149 C 
HETATM   20  C   UNL     1      30.605   7.962  -5.511  1.00  0.00     0.149 C 
ENDBRANCH  15  18
ENDBRANCH   4  12
TORSDOF 2
ENDMDL
MODEL 9
REMARK VINA RESULT:      -7.1     26.091     28.433
REMARK  2 active torsions:
REMARK  status: ('A' for Active; 'I' for Inactive)
REMARK    1  A    between atoms: N_3  and  C_15 
REMARK    2  A    between atoms: C_5  and  C_7 
ROOT
HETATM    1  S   UNL     1      33.224   7.225 -17.134  1.00  0.00    -0.069 SA
HETATM    2  N   UNL     1      31.172   5.739 -17.166  1.00  0.00    -0.344 N 
HETATM    3  C   UNL     1      31.588   5.896 -18.464  1.00  0.00     0.052 A 
HETATM    4  C   UNL     1      32.002   6.400 -16.289  1.00  0.00     0.087 A 
HETATM    5  C   UNL     1      32.712   6.690 -18.628  1.00  0.00     0.034 A 
HETATM    6  C   UNL     1      30.969   5.344 -19.599  1.00  0.00     0.031 A 
HETATM    7  C   UNL     1      33.267   6.964 -19.875  1.00  0.00     0.028 A 
HETATM    8  C   UNL     1      29.943   5.000 -16.845  1.00  0.00     0.157 C 
HETATM    9  C   UNL     1      32.657   6.409 -21.015  1.00  0.00    -0.061 A 
HETATM   10  C   UNL     1      31.509   5.602 -20.870  1.00  0.00     0.009 A 
HETATM   11  C   UNL     1      33.213   6.670 -22.383  1.00  0.00     0.048 C 
ENDROOT
BRANCH   4  12
HETATM   12  C   UNL     1      31.944   6.423 -14.792  1.00  0.00    -0.002 A 
HETATM   13  C   UNL     1      31.207   7.378 -14.069  1.00  0.00     0.016 A 
HETATM   14  C   UNL     1      31.163   7.349 -12.671  1.00  0.00     0.030 A 
HETATM   15  C   UNL     1      31.847   6.358 -11.938  1.00  0.00     0.029 A 
HETATM   16  C   UNL     1      32.567   5.388 -12.668  1.00  0.00     0.030 A 
HETATM   17  C   UNL     1      32.605   5.418 -14.064  1.00  0.00     0.016 A 
BRANCH  15  18
HETATM   18  N   UNL     1      31.803   6.328 -10.494  1.00  0.00    -0.390 N 
HETATM   19  C   UNL     1      31.000   7.294  -9.757  1.00  0.00     0.149 C 
HETATM   20  C   UNL     1      32.560   5.332  -9.749  1.00  0.00     0.149 C 
ENDBRANCH  15  18
ENDBRANCH   4  12
TORSDOF 2
ENDMDL
MODEL 10
REMARK VINA RESULT:      -7.1     26.375     27.253
REMARK  2 active torsions:
REMARK  status: ('A' for Active; 'I' for Inactive)
REMARK    1  A    between atoms: N_3  and  C_15 
REMARK    2  A    between atoms: C_5  and  C_7 
ROOT
HETATM    1  S   UNL     1      30.723   5.353 -10.629  1.00  0.00    -0.069 SA
HETATM    2  N   UNL     1      32.764   6.855 -10.656  1.00  0.00    -0.344 N 
HETATM    3  C   UNL     1      32.492   6.551  -9.345  1.00  0.00     0.052 A 
HETATM    4  C   UNL     1      31.879   6.237 -11.509  1.00  0.00     0.087 A 
HETATM    5  C   UNL     1      31.394   5.729  -9.150  1.00  0.00     0.034 A 
HETATM    6  C   UNL     1      33.211   7.011  -8.228  1.00  0.00     0.031 A 
HETATM    7  C   UNL     1      30.969   5.327  -7.887  1.00  0.00     0.028 A 
HETATM    8  C   UNL     1      33.842   7.788 -11.013  1.00  0.00     0.157 C 
HETATM    9  C   UNL     1      31.687   5.778  -6.763  1.00  0.00    -0.061 A 
HETATM   10  C   UNL     1      32.805   6.619  -6.942  1.00  0.00     0.009 A 
HETATM   11  C   UNL     1      31.274   5.376  -5.380  1.00  0.00     0.048 C 
ENDROOT
BRANCH   4  12
HETATM   12  C   UNL     1      31.869   6.247 -13.007  1.00  0.00    -0.002 A 
HETATM   13  C   UNL     1      32.563   5.303 -13.784  1.00  0.00     0.016 A 
HETATM   14  C   UNL     1      32.509   5.336 -15.181  1.00  0.00     0.030 A 
HETATM   15  C   UNL     1      31.748   6.311 -15.861  1.00  0.00     0.029 A 
HETATM   16  C   UNL     1      31.035   7.242 -15.077  1.00  0.00     0.030 A 
HETATM   17  C   UNL     1      31.088   7.203 -13.682  1.00  0.00     0.016 A 
BRANCH  15  18
HETATM   18  N   UNL     1      31.692   6.347 -17.303  1.00  0.00    -0.390 N 
HETATM   19  C   UNL     1      32.358   5.323 -18.097  1.00  0.00     0.149 C 
HETATM   20  C   UNL     1      30.969   7.407 -17.992  1.00  0.00     0.149 C 
ENDBRANCH  15  18
ENDBRANCH   4  12
TORSDOF 2
ENDMDL
MODEL 11
REMARK VINA RESULT:      -7.1     26.344     28.176
REMARK  2 active torsions:
REMARK  status: ('A' for Active; 'I' for Inactive)
REMARK    1  A    between atoms: N_3  and  C_15 
REMARK    2  A    between atoms: C_5  and  C_7 
ROOT
HETATM    1  S   UNL     1      32.125   5.291 -18.284  1.00  0.00    -0.069 SA
HETATM    2  N   UNL     1      31.223   7.597 -17.750  1.00  0.00    -0.344 N 
HETATM    3  C   UNL     1      31.161   7.435 -19.111  1.00  0.00     0.052 A 
HETATM    4  C   UNL     1      31.716   6.471 -17.131  1.00  0.00     0.087 A 
HETATM    5  C   UNL     1      31.621   6.214 -19.578  1.00  0.00     0.034 A 
HETATM    6  C   UNL     1      30.696   8.389 -20.033  1.00  0.00     0.031 A 
HETATM    7  C   UNL     1      31.639   5.882 -20.929  1.00  0.00     0.028 A 
HETATM    8  C   UNL     1      30.855   8.872 -17.117  1.00  0.00     0.157 C 
HETATM    9  C   UNL     1      31.170   6.829 -21.858  1.00  0.00    -0.061 A 
HETATM   10  C   UNL     1      30.701   8.080 -21.402  1.00  0.00     0.009 A 
HETATM   11  C   UNL     1      31.165   6.525 -23.326  1.00  0.00     0.048 C 
ENDROOT
BRANCH   4  12
HETATM   12  C   UNL     1      31.876   6.208 -15.665  1.00  0.00    -0.002 A 
HETATM   13  C   UNL     1      32.986   6.652 -14.924  1.00  0.00     0.016 A 
HETATM   14  C   UNL     1      33.084   6.405 -13.551  1.00  0.00     0.030 A 
HETATM   15  C   UNL     1      32.070   5.710 -12.859  1.00  0.00     0.029 A 
HETATM   16  C   UNL     1      30.948   5.286 -13.601  1.00  0.00     0.030 A 
HETATM   17  C   UNL     1      30.851   5.539 -14.972  1.00  0.00     0.016 A 
BRANCH  15  18
HETATM   18  N   UNL     1      32.171   5.453 -11.441  1.00  0.00    -0.390 N 
HETATM   19  C   UNL     1      30.973   5.375 -10.615  1.00  0.00     0.149 C 
HETATM   20  C   UNL     1      33.470   5.267 -10.811  1.00  0.00     0.149 C 
ENDBRANCH  15  18
ENDBRANCH   4  12
TORSDOF 2
ENDMDL
MODEL 12
REMARK VINA RESULT:      -7.1     26.039     27.346
REMARK  2 active torsions:
REMARK  status: ('A' for Active; 'I' for Inactive)
REMARK    1  A    between atoms: N_3  and  C_15 
REMARK    2  A    between atoms: C_5  and  C_7 
ROOT
HETATM    1  S   UNL     1      33.463   6.803 -11.715  1.00  0.00    -0.069 SA
HETATM    2  N   UNL     1      31.217   5.634 -11.601  1.00  0.00    -0.344 N 
HETATM    3  C   UNL     1      31.652   5.818 -10.313  1.00  0.00     0.052 A 
HETATM    4  C   UNL     1      32.108   6.157 -12.512  1.00  0.00     0.087 A 
HETATM    5  C   UNL     1      32.879   6.451 -10.193  1.00  0.00     0.034 A 
HETATM    6  C   UNL     1      30.975   5.411  -9.150  1.00  0.00     0.031 A 
HETATM    7  C   UNL     1      33.476   6.712  -8.962  1.00  0.00     0.028 A 
HETATM    8  C   UNL     1      29.979   4.897 -11.889  1.00  0.00     0.157 C 
HETATM    9  C   UNL     1      32.802   6.314  -7.793  1.00  0.00    -0.061 A 
HETATM   10  C   UNL     1      31.553   5.664  -7.895  1.00  0.00     0.009 A 
HETATM   11  C   UNL     1      33.397   6.570  -6.442  1.00  0.00     0.048 C 
ENDROOT
BRANCH   4  12
HETATM   12  C   UNL     1      31.979   6.230 -14.003  1.00  0.00    -0.002 A 
HETATM   13  C   UNL     1      31.138   7.149 -14.655  1.00  0.00     0.016 A 
HETATM   14  C   UNL     1      31.065   7.197 -16.050  1.00  0.00     0.030 A 
HETATM   15  C   UNL     1      31.838   6.333 -16.854  1.00  0.00     0.029 A 
HETATM   16  C   UNL     1      32.698   5.428 -16.196  1.00  0.00     0.030 A 
HETATM   17  C   UNL     1      32.771   5.386 -14.801  1.00  0.00     0.016 A 
BRANCH  15  18
HETATM   18  N   UNL     1      31.763   6.381 -18.295  1.00  0.00    -0.390 N 
HETATM   19  C   UNL     1      31.041   7.455 -18.965  1.00  0.00     0.149 C 
HETATM   20  C   UNL     1      32.406   5.357 -19.107  1.00  0.00     0.149 C 
ENDBRANCH  15  18
ENDBRANCH   4  12
TORSDOF 2
ENDMDL
MODEL 13
REMARK VINA RESULT:      -7.1     26.211     27.381
REMARK  2 active torsions:
REMARK  status: ('A' for Active; 'I' for Inactive)
REMARK    1  A    between atoms: N_3  and  C_15 
REMARK    2  A    between atoms: C_5  and  C_7 
ROOT
HETATM    1  S   UNL     1      31.769   5.062 -17.498  1.00  0.00    -0.069 SA
HETATM    2  N   UNL     1      31.051   7.459 -17.902  1.00  0.00    -0.344 N 
HETATM    3  C   UNL     1      31.079   7.260 -16.545  1.00  0.00     0.052 A 
HETATM    4  C   UNL     1      31.440   6.328 -18.584  1.00  0.00     0.087 A 
HETATM    5  C   UNL     1      31.456   5.987 -16.146  1.00  0.00     0.034 A 
HETATM    6  C   UNL     1      30.750   8.214 -15.566  1.00  0.00     0.031 A 
HETATM    7  C   UNL     1      31.531   5.607 -14.809  1.00  0.00     0.028 A 
HETATM    8  C   UNL     1      30.584   8.728 -18.476  1.00  0.00     0.157 C 
HETATM    9  C   UNL     1      31.209   6.558 -13.824  1.00  0.00    -0.061 A 
HETATM   10  C   UNL     1      30.819   7.858 -14.210  1.00  0.00     0.009 A 
HETATM   11  C   UNL     1      31.273   6.204 -12.368  1.00  0.00     0.048 C 
ENDROOT
BRANCH   4  12
HETATM   12  C   UNL     1      31.615   6.146 -20.061  1.00  0.00    -0.002 A 
HETATM   13  C   UNL     1      32.814   6.444 -20.733  1.00  0.00     0.016 A 
HETATM   14  C   UNL     1      32.941   6.238 -22.110  1.00  0.00     0.030 A 
HETATM   15  C   UNL     1      31.876   5.715 -22.873  1.00  0.00     0.029 A 
HETATM   16  C   UNL     1      30.682   5.396 -22.191  1.00  0.00     0.030 A 
HETATM   17  C   UNL     1      30.561   5.599 -20.815  1.00  0.00     0.016 A 
BRANCH  15  18
HETATM   18  N   UNL     1      32.006   5.502 -24.295  1.00  0.00    -0.390 N 
HETATM   19  C   UNL     1      30.827   5.282 -25.123  1.00  0.00     0.149 C 
HETATM   20  C   UNL     1      33.317   5.503 -24.929  1.00  0.00     0.149 C 
ENDBRANCH  15  18
ENDBRANCH   4  12
TORSDOF 2
ENDMDL
MODEL 14
REMARK VINA RESULT:      -7.0     25.991     28.371
REMARK  2 active torsions:
REMARK  status: ('A' for Active; 'I' for Inactive)
REMARK    1  A    between atoms: N_3  and  C_15 
REMARK    2  A    between atoms: C_5  and  C_7 
ROOT
HETATM    1  S   UNL     1      33.200   7.148 -12.248  1.00  0.00    -0.069 SA
HETATM    2  N   UNL     1      31.135   5.682 -12.333  1.00  0.00    -0.344 N 
HETATM    3  C   UNL     1      31.558   5.875 -13.624  1.00  0.00     0.052 A 
HETATM    4  C   UNL     1      31.967   6.310 -11.433  1.00  0.00     0.087 A 
HETATM    5  C   UNL     1      32.690   6.663 -13.759  1.00  0.00     0.034 A 
HETATM    6  C   UNL     1      30.940   5.362 -14.777  1.00  0.00     0.031 A 
HETATM    7  C   UNL     1      33.252   6.969 -14.995  1.00  0.00     0.028 A 
HETATM    8  C   UNL     1      29.899   4.944 -12.038  1.00  0.00     0.157 C 
HETATM    9  C   UNL     1      32.643   6.454 -16.154  1.00  0.00    -0.061 A 
HETATM   10  C   UNL     1      31.487   5.653 -16.037  1.00  0.00     0.009 A 
HETATM   11  C   UNL     1      33.206   6.751 -17.511  1.00  0.00     0.048 C 
ENDROOT
BRANCH   4  12
HETATM   12  C   UNL     1      31.903   6.289  -9.936  1.00  0.00    -0.002 A 
HETATM   13  C   UNL     1      32.622   5.369  -9.152  1.00  0.00     0.016 A 
HETATM   14  C   UNL     1      32.550   5.399  -7.756  1.00  0.00     0.030 A 
HETATM   15  C   UNL     1      31.764   6.358  -7.083  1.00  0.00     0.029 A 
HETATM   16  C   UNL     1      31.062   7.293  -7.873  1.00  0.00     0.030 A 
HETATM   17  C   UNL     1      31.139   7.263  -9.268  1.00  0.00     0.016 A 
BRANCH  15  18
HETATM   18  N   UNL     1      31.689   6.389  -5.642  1.00  0.00    -0.390 N 
HETATM   19  C   UNL     1      30.971   7.458  -4.959  1.00  0.00     0.149 C 
HETATM   20  C   UNL     1      32.330   5.355  -4.842  1.00  0.00     0.149 C 
ENDBRANCH  15  18
ENDBRANCH   4  12
TORSDOF 2
ENDMDL
MODEL 15
REMARK VINA RESULT:      -7.0     26.019     27.974
REMARK  2 active torsions:
REMARK  status: ('A' for Active; 'I' for Inactive)
REMARK    1  A    between atoms: N_3  and  C_15 
REMARK    2  A    between atoms: C_5  and  C_7 
ROOT
HETATM    1  S   UNL     1      32.400   5.130 -14.782  1.00  0.00    -0.069 SA
HETATM    2  N   UNL     1      31.120   7.317 -14.753  1.00  0.00    -0.344 N 
HETATM    3  C   UNL     1      31.256   6.936 -16.064  1.00  0.00     0.052 A 
HETATM    4  C   UNL     1      31.684   6.395 -13.900  1.00  0.00     0.087 A 
HETATM    5  C   UNL     1      31.940   5.747 -16.261  1.00  0.00     0.034 A 
HETATM    6  C   UNL     1      30.783   7.648 -17.180  1.00  0.00     0.031 A 
HETATM    7  C   UNL     1      32.178   5.216 -17.525  1.00  0.00     0.028 A 
HETATM    8  C   UNL     1      30.497   8.599 -14.392  1.00  0.00     0.157 C 
HETATM    9  C   UNL     1      31.703   5.919 -18.648  1.00  0.00    -0.061 A 
HETATM   10  C   UNL     1      31.008   7.133 -18.467  1.00  0.00     0.009 A 
HETATM   11  C   UNL     1      31.930   5.392 -20.033  1.00  0.00     0.048 C 
ENDROOT
BRANCH   4  12
HETATM   12  C   UNL     1      31.689   6.394 -12.402  1.00  0.00    -0.002 A 
HETATM   13  C   UNL     1      30.702   5.753 -11.633  1.00  0.00     0.016 A 
HETATM   14  C   UNL     1      30.758   5.758 -10.236  1.00  0.00     0.030 A 
HETATM   15  C   UNL     1      31.810   6.397  -9.548  1.00  0.00     0.029 A 
HETATM   16  C   UNL     1      32.811   7.019 -10.323  1.00  0.00     0.030 A 
HETATM   17  C   UNL     1      32.755   7.008 -11.719  1.00  0.00     0.016 A 
BRANCH  15  18
HETATM   18  N   UNL     1      31.869   6.403  -8.105  1.00  0.00    -0.390 N 
HETATM   19  C   UNL     1      30.948   7.224  -7.329  1.00  0.00     0.149 C 
HETATM   20  C   UNL     1      32.849   5.591  -7.398  1.00  0.00     0.149 C 
ENDBRANCH  15  18
ENDBRANCH   4  12
TORSDOF 2
ENDMDL
MODEL 16
REMARK VINA RESULT:      -7.0     26.208     27.559
REMARK  2 active torsions:
REMARK  status: ('A' for Active; 'I' for Inactive)
REMARK    1  A    between atoms: N_3  and  C_15 
REMARK    2  A    between atoms: C_5  and  C_7 
ROOT
HETATM    1  S   UNL     1      32.578   5.044 -15.327  1.00  0.00    -0.069 SA
HETATM    2  N   UNL     1      31.367   7.265 -15.461  1.00  0.00    -0.344 N 
HETATM    3  C   UNL     1      31.400   6.893 -14.141  1.00  0.00     0.052 A 
HETATM    4  C   UNL     1      32.011   6.347 -16.259  1.00  0.00     0.087 A 
HETATM    5  C   UNL     1      32.034   5.687 -13.888  1.00  0.00     0.034 A 
HETATM    6  C   UNL     1      30.845   7.612 -13.069  1.00  0.00     0.031 A 
HETATM    7  C   UNL     1      32.154   5.151 -12.609  1.00  0.00     0.028 A 
HETATM    8  C   UNL     1      30.651   8.474 -15.894  1.00  0.00     0.157 C 
HETATM    9  C   UNL     1      31.605   5.868 -11.529  1.00  0.00    -0.061 A 
HETATM   10  C   UNL     1      30.952   7.096 -11.767  1.00  0.00     0.009 A 
HETATM   11  C   UNL     1      31.705   5.340 -10.130  1.00  0.00     0.048 C 
ENDROOT
BRANCH   4  12
HETATM   12  C   UNL     1      32.262   6.410 -17.735  1.00  0.00    -0.002 A 
HETATM   13  C   UNL     1      33.283   7.191 -18.305  1.00  0.00     0.016 A 
HETATM   14  C   UNL     1      33.497   7.204 -19.687  1.00  0.00     0.030 A 
HETATM   15  C   UNL     1      32.703   6.428 -20.557  1.00  0.00     0.029 A 
HETATM   16  C   UNL     1      31.694   5.628 -19.979  1.00  0.00     0.030 A 
HETATM   17  C   UNL     1      31.487   5.615 -18.598  1.00  0.00     0.016 A 
BRANCH  15  18
HETATM   18  N   UNL     1      32.922   6.441 -21.985  1.00  0.00    -0.390 N 
HETATM   19  C   UNL     1      32.485   5.325 -22.812  1.00  0.00     0.149 C 
HETATM   20  C   UNL     1      33.585   7.569 -22.624  1.00  0.00     0.149 C 
ENDBRANCH  15  18
ENDBRANCH   4  12
TORSDOF 2
ENDMDL
MODEL 17
REMARK VINA RESULT:      -7.0     26.202     27.482
REMARK  2 active torsions:
REMARK  status: ('A' for Active; 'I' for Inactive)
REMARK    1  A    between atoms: N_3  and  C_15 
REMARK    2  A    between atoms: C_5  and  C_7 
ROOT
HETATM    1  S   UNL     1      33.293   6.810 -16.923  1.00  0.00    -0.069 SA
HETATM    2  N   UNL     1      31.079   5.589 -16.749  1.00  0.00    -0.344 N 
HETATM    3  C   UNL     1      31.558   5.758 -15.475  1.00  0.00     0.052 A 
HETATM    4  C   UNL     1      31.923   6.150 -17.682  1.00  0.00     0.087 A 
HETATM    5  C   UNL     1      32.775   6.416 -15.387  1.00  0.00     0.034 A 
HETATM    6  C   UNL     1      30.934   5.314 -14.296  1.00  0.00     0.031 A 
HETATM    7  C   UNL     1      33.412   6.666 -14.175  1.00  0.00     0.028 A 
HETATM    8  C   UNL     1      29.846   4.831 -17.006  1.00  0.00     0.157 C 
HETATM    9  C   UNL     1      32.791   6.229 -12.990  1.00  0.00    -0.061 A 
HETATM   10  C   UNL     1      31.554   5.554 -13.059  1.00  0.00     0.009 A 
HETATM   11  C   UNL     1      33.431   6.472 -11.657  1.00  0.00     0.048 C 
ENDROOT
BRANCH   4  12
HETATM   12  C   UNL     1      31.737   6.249 -19.165  1.00  0.00    -0.002 A 
HETATM   13  C   UNL     1      32.185   5.261 -20.060  1.00  0.00     0.016 A 
HETATM   14  C   UNL     1      31.970   5.383 -21.436  1.00  0.00     0.030 A 
HETATM   15  C   UNL     1      31.288   6.494 -21.975  1.00  0.00     0.029 A 
HETATM   16  C   UNL     1      30.821   7.472 -21.072  1.00  0.00     0.030 A 
HETATM   17  C   UNL     1      31.033   7.344 -19.697  1.00  0.00     0.016 A 
BRANCH  15  18
HETATM   18  N   UNL     1      31.067   6.622 -23.397  1.00  0.00    -0.390 N 
HETATM   19  C   UNL     1      31.070   5.445 -24.256  1.00  0.00     0.149 C 
HETATM   20  C   UNL     1      30.837   7.928 -23.998  1.00  0.00     0.149 C 
ENDBRANCH  15  18
ENDBRANCH   4  12
TORSDOF 2
ENDMDL
MODEL 18
REMARK VINA RESULT:      -6.8     26.101     28.147
REMARK  2 active torsions:
REMARK  status: ('A' for Active; 'I' for Inactive)
REMARK    1  A    between atoms: N_3  and  C_15 
REMARK    2  A    between atoms: C_5  and  C_7 
ROOT
HETATM    1  S   UNL     1      32.430   5.098 -11.082  1.00  0.00    -0.069 SA
HETATM    2  N   UNL     1      31.116   7.265 -11.084  1.00  0.00    -0.344 N 
HETATM    3  C   UNL     1      31.311   6.899 -12.392  1.00  0.00     0.052 A 
HETATM    4  C   UNL     1      31.660   6.343 -10.218  1.00  0.00     0.087 A 
HETATM    5  C   UNL     1      32.021   5.723 -12.573  1.00  0.00     0.034 A 
HETATM    6  C   UNL     1      30.873   7.614 -13.520  1.00  0.00     0.031 A 
HETATM    7  C   UNL     1      32.318   5.207 -13.831  1.00  0.00     0.028 A 
HETATM    8  C   UNL     1      30.460   8.533 -10.737  1.00  0.00     0.157 C 
HETATM    9  C   UNL     1      31.877   5.914 -14.966  1.00  0.00    -0.061 A 
HETATM   10  C   UNL     1      31.156   7.116 -14.802  1.00  0.00     0.009 A 
HETATM   11  C   UNL     1      32.168   5.404 -16.345  1.00  0.00     0.048 C 
ENDROOT
BRANCH   4  12
HETATM   12  C   UNL     1      31.606   6.327  -8.721  1.00  0.00    -0.002 A 
HETATM   13  C   UNL     1      30.859   5.385  -7.992  1.00  0.00     0.016 A 
HETATM   14  C   UNL     1      30.854   5.393  -6.594  1.00  0.00     0.030 A 
HETATM   15  C   UNL     1      31.604   6.339  -5.864  1.00  0.00     0.029 A 
HETATM   16  C   UNL     1      32.369   7.269  -6.600  1.00  0.00     0.030 A 
HETATM   17  C   UNL     1      32.375   7.255  -7.997  1.00  0.00     0.016 A 
BRANCH  15  18
HETATM   18  N   UNL     1      31.599   6.349  -4.420  1.00  0.00    -0.390 N 
HETATM   19  C   UNL     1      32.103   5.208  -3.669  1.00  0.00     0.149 C 
HETATM   20  C   UNL     1      31.088   7.500  -3.688  1.00  0.00     0.149 C 
ENDBRANCH  15  18
ENDBRANCH   4  12
TORSDOF 2
ENDMDL
MODEL 19
REMARK VINA RESULT:      -6.8     25.775     26.709
REMARK  2 active torsions:
REMARK  status: ('A' for Active; 'I' for Inactive)
REMARK    1  A    between atoms: N_3  and  C_15 
REMARK    2  A    between atoms: C_5  and  C_7 
ROOT
HETATM    1  S   UNL     1      30.903   8.758 -14.096  1.00  0.00    -0.069 SA
HETATM    2  N   UNL     1      31.546   6.451 -13.269  1.00  0.00    -0.344 N 
HETATM    3  C   UNL     1      31.222   7.207 -12.171  1.00  0.00     0.052 A 
HETATM    4  C   UNL     1      31.392   7.167 -14.435  1.00  0.00     0.087 A 
HETATM    5  C   UNL     1      30.843   8.511 -12.448  1.00  0.00     0.034 A 
HETATM    6  C   UNL     1      31.261   6.775 -10.834  1.00  0.00     0.031 A 
HETATM    7  C   UNL     1      30.489   9.420 -11.455  1.00  0.00     0.028 A 
HETATM    8  C   UNL     1      32.052   5.079 -13.127  1.00  0.00     0.157 C 
HETATM    9  C   UNL     1      30.520   8.994 -10.114  1.00  0.00    -0.061 A 
HETATM   10  C   UNL     1      30.907   7.671  -9.812  1.00  0.00     0.009 A 
HETATM   11  C   UNL     1      30.148   9.930  -9.004  1.00  0.00     0.048 C 
ENDROOT
BRANCH   4  12
HETATM   12  C   UNL     1      31.569   6.695 -15.846  1.00  0.00    -0.002 A 
HETATM   13  C   UNL     1      30.643   5.859 -16.496  1.00  0.00     0.016 A 
HETATM   14  C   UNL     1      30.837   5.461 -17.822  1.00  0.00     0.030 A 
HETATM   15  C   UNL     1      31.960   5.890 -18.559  1.00  0.00     0.029 A 
HETATM   16  C   UNL     1      32.875   6.747 -17.911  1.00  0.00     0.030 A 
HETATM   17  C   UNL     1      32.676   7.147 -16.587  1.00  0.00     0.016 A 
BRANCH  15  18
HETATM   18  N   UNL     1      32.161   5.479 -19.929  1.00  0.00    -0.390 N 
HETATM   19  C   UNL     1      31.023   5.193 -20.792  1.00  0.00     0.149 C 
HETATM   20  C   UNL     1      33.505   5.340 -20.472  1.00  0.00     0.149 C 
ENDBRANCH  15  18
ENDBRANCH   4  12
TORSDOF 2
ENDMDL
MODEL 20
REMARK VINA RESULT:      -6.7     26.216     28.429
REMARK  2 active torsions:
REMARK  status: ('A' for Active; 'I' for Inactive)
REMARK    1  A    between atoms: N_3  and  C_15 
REMARK    2  A    between atoms: C_5  and  C_7 
ROOT
HETATM    1  S   UNL     1      33.388   7.824 -15.805  1.00  0.00    -0.069 SA
HETATM    2  N   UNL     1      31.589   6.069 -16.132  1.00  0.00    -0.344 N 
HETATM    3  C   UNL     1      32.159   6.309 -17.357  1.00  0.00     0.052 A 
HETATM    4  C   UNL     1      32.186   6.821 -15.144  1.00  0.00     0.087 A 
HETATM    5  C   UNL     1      33.173   7.254 -17.357  1.00  0.00     0.034 A 
HETATM    6  C   UNL     1      31.791   5.700 -18.569  1.00  0.00     0.031 A 
HETATM    7  C   UNL     1      33.855   7.627 -18.512  1.00  0.00     0.028 A 
HETATM    8  C   UNL     1      30.443   5.161 -15.989  1.00  0.00     0.157 C 
HETATM    9  C   UNL     1      33.497   7.017 -19.728  1.00  0.00    -0.061 A 
HETATM   10  C   UNL     1      32.464   6.056 -19.749  1.00  0.00     0.009 A 
HETATM   11  C   UNL     1      34.198   7.380 -21.002  1.00  0.00     0.048 C 
ENDROOT
BRANCH   4  12
HETATM   12  C   UNL     1      31.914   6.805 -13.671  1.00  0.00    -0.002 A 
HETATM   13  C   UNL     1      31.093   7.752 -13.033  1.00  0.00     0.016 A 
HETATM   14  C   UNL     1      30.848   7.687 -11.659  1.00  0.00     0.030 A 
HETATM   15  C   UNL     1      31.407   6.665 -10.863  1.00  0.00     0.029 A 
HETATM   16  C   UNL     1      32.212   5.703 -11.510  1.00  0.00     0.030 A 
HETATM   17  C   UNL     1      32.450   5.769 -12.885  1.00  0.00     0.016 A 
BRANCH  15  18
HETATM   18  N   UNL     1      31.155   6.597  -9.443  1.00  0.00    -0.390 N 
HETATM   19  C   UNL     1      30.856   7.805  -8.684  1.00  0.00     0.149 C 
HETATM   20  C   UNL     1      31.198   5.322  -8.741  1.00  0.00     0.149 C 
ENDBRANCH  15  18
ENDBRANCH   4  12
TORSDOF 2
ENDMDL
