MODEL 1
REMARK VINA RESULT:      -4.9      0.000      0.000
REMARK  15 active torsions:
REMARK  status: ('A' for Active; 'I' for Inactive)
REMARK    1  A    between atoms: O_1  and  C_22 
REMARK    2  A    between atoms: C_3  and  C_4 
REMARK    3  A    between atoms: C_3  and  C_5 
REMARK    4  A    between atoms: C_4  and  C_6 
REMARK    5  A    between atoms: C_5  and  C_7 
REMARK    6  A    between atoms: C_9  and  C_10 
REMARK    7  A    between atoms: C_9  and  C_13 
REMARK    8  A    between atoms: C_10  and  C_14 
REMARK    9  A    between atoms: C_11  and  C_12 
REMARK   10  A    between atoms: C_12  and  C_16 
REMARK   11  A    between atoms: C_13  and  C_22 
REMARK   12  A    between atoms: C_15  and  C_17 
REMARK   13  A    between atoms: C_15  and  C_20 
REMARK   14  A    between atoms: C_18  and  C_19 
REMARK   15  A    between atoms: C_18  and  C_21 
ROOT
HETATM    1  O   UNL     1      30.853   4.661  -6.650  1.00  0.00    -0.776 OA
HETATM    2  H   UNL     1      30.631   3.729  -6.517  1.00  0.00     0.167 HD
ENDROOT
BRANCH   1   3
HETATM    3  C   UNL     1      32.125   5.057  -6.867  1.00  0.00     0.139 C 
HETATM    4  O   UNL     1      33.050   4.283  -6.667  1.00  0.00    -0.650 OA
BRANCH   3   5
HETATM    5  C   UNL     1      32.402   6.456  -7.345  1.00  0.00     0.110 C 
BRANCH   5   6
HETATM    6  C   UNL     1      32.689   6.512  -8.852  1.00  0.00     0.014 C 
BRANCH   6   7
HETATM    7  C   UNL     1      31.587   5.851  -9.690  1.00  0.00     0.027 C 
BRANCH   7   8
HETATM    8  C   UNL     1      32.210   5.003 -10.770  1.00  0.00    -0.030 C 
HETATM    9  C   UNL     1      31.996   5.149 -12.091  1.00  0.00    -0.027 C 
BRANCH   9  10
HETATM   10  C   UNL     1      31.118   6.198 -12.725  1.00  0.00     0.053 C 
BRANCH  10  11
HETATM   11  C   UNL     1      31.776   7.560 -12.686  1.00  0.00    -0.027 C 
HETATM   12  C   UNL     1      31.396   8.674 -13.344  1.00  0.00    -0.027 C 
BRANCH  12  13
HETATM   13  C   UNL     1      30.209   8.825 -14.261  1.00  0.00     0.053 C 
BRANCH  13  14
HETATM   14  C   UNL     1      30.676   9.080 -15.675  1.00  0.00    -0.027 C 
HETATM   15  C   UNL     1      30.749   8.147 -16.646  1.00  0.00    -0.027 C 
BRANCH  15  16
HETATM   16  C   UNL     1      30.389   6.696 -16.464  1.00  0.00     0.053 C 
BRANCH  16  17
HETATM   17  C   UNL     1      31.128   5.816 -17.441  1.00  0.00    -0.027 C 
HETATM   18  C   UNL     1      32.188   5.058 -17.114  1.00  0.00    -0.030 C 
BRANCH  18  19
HETATM   19  C   UNL     1      32.800   4.982 -15.738  1.00  0.00     0.027 C 
BRANCH  19  20
HETATM   20  C   UNL     1      34.159   5.690 -15.739  1.00  0.00     0.004 C 
BRANCH  20  21
HETATM   21  C   UNL     1      34.022   7.156 -15.316  1.00  0.00    -0.000 C 
BRANCH  21  22
HETATM   22  C   UNL     1      34.890   8.063 -16.197  1.00  0.00    -0.005 C 
HETATM   23  C   UNL     1      34.153   8.461 -17.472  1.00  0.00     0.005 C 
ENDBRANCH  21  22
ENDBRANCH  20  21
ENDBRANCH  19  20
ENDBRANCH  18  19
ENDBRANCH  16  17
ENDBRANCH  15  16
ENDBRANCH  13  14
ENDBRANCH  12  13
ENDBRANCH  10  11
ENDBRANCH   9  10
ENDBRANCH   7   8
ENDBRANCH   6   7
ENDBRANCH   5   6
ENDBRANCH   3   5
ENDBRANCH   1   3
TORSDOF 15
ENDMDL
MODEL 2
REMARK VINA RESULT:      -4.8      4.587      6.728
REMARK  15 active torsions:
REMARK  status: ('A' for Active; 'I' for Inactive)
REMARK    1  A    between atoms: O_1  and  C_22 
REMARK    2  A    between atoms: C_3  and  C_4 
REMARK    3  A    between atoms: C_3  and  C_5 
REMARK    4  A    between atoms: C_4  and  C_6 
REMARK    5  A    between atoms: C_5  and  C_7 
REMARK    6  A    between atoms: C_9  and  C_10 
REMARK    7  A    between atoms: C_9  and  C_13 
REMARK    8  A    between atoms: C_10  and  C_14 
REMARK    9  A    between atoms: C_11  and  C_12 
REMARK   10  A    between atoms: C_12  and  C_16 
REMARK   11  A    between atoms: C_13  and  C_22 
REMARK   12  A    between atoms: C_15  and  C_17 
REMARK   13  A    between atoms: C_15  and  C_20 
REMARK   14  A    between atoms: C_18  and  C_19 
REMARK   15  A    between atoms: C_18  and  C_21 
ROOT
HETATM    1  O   UNL     1      28.716  12.281 -17.315  1.00  0.00    -0.776 OA
HETATM    2  H   UNL     1      28.628  11.322 -17.412  1.00  0.00     0.167 HD
ENDROOT
BRANCH   1   3
HETATM    3  C   UNL     1      28.693  12.869 -16.100  1.00  0.00     0.139 C 
HETATM    4  O   UNL     1      28.178  13.969 -15.962  1.00  0.00    -0.650 OA
BRANCH   3   5
HETATM    5  C   UNL     1      29.313  12.172 -14.920  1.00  0.00     0.110 C 
BRANCH   5   6
HETATM    6  C   UNL     1      28.553  10.896 -14.530  1.00  0.00     0.014 C 
BRANCH   6   7
HETATM    7  C   UNL     1      29.437   9.643 -14.578  1.00  0.00     0.027 C 
BRANCH   7   8
HETATM    8  C   UNL     1      30.409   9.662 -13.425  1.00  0.00    -0.030 C 
HETATM    9  C   UNL     1      31.748   9.580 -13.537  1.00  0.00    -0.027 C 
BRANCH   9  10
HETATM   10  C   UNL     1      32.513   9.478 -14.832  1.00  0.00     0.053 C 
BRANCH  10  11
HETATM   11  C   UNL     1      33.971   9.160 -14.584  1.00  0.00    -0.027 C 
HETATM   12  C   UNL     1      34.708   8.187 -15.159  1.00  0.00    -0.027 C 
BRANCH  12  13
HETATM   13  C   UNL     1      34.251   7.199 -16.202  1.00  0.00     0.053 C 
BRANCH  13  14
HETATM   14  C   UNL     1      34.056   7.898 -17.526  1.00  0.00    -0.027 C 
HETATM   15  C   UNL     1      33.090   7.606 -18.420  1.00  0.00    -0.027 C 
BRANCH  15  16
HETATM   16  C   UNL     1      32.061   6.521 -18.241  1.00  0.00     0.053 C 
BRANCH  16  17
HETATM   17  C   UNL     1      30.840   7.030 -17.517  1.00  0.00    -0.027 C 
HETATM   18  C   UNL     1      30.451   6.596 -16.306  1.00  0.00    -0.030 C 
BRANCH  18  19
HETATM   19  C   UNL     1      31.162   5.537 -15.502  1.00  0.00     0.027 C 
BRANCH  19  20
HETATM   20  C   UNL     1      31.270   5.985 -14.041  1.00  0.00     0.004 C 
BRANCH  20  21
HETATM   21  C   UNL     1      32.542   5.436 -13.385  1.00  0.00    -0.000 C 
BRANCH  21  22
HETATM   22  C   UNL     1      32.598   5.815 -11.900  1.00  0.00    -0.005 C 
HETATM   23  C   UNL     1      33.628   6.912 -11.650  1.00  0.00     0.005 C 
ENDBRANCH  21  22
ENDBRANCH  20  21
ENDBRANCH  19  20
ENDBRANCH  18  19
ENDBRANCH  16  17
ENDBRANCH  15  16
ENDBRANCH  13  14
ENDBRANCH  12  13
ENDBRANCH  10  11
ENDBRANCH   9  10
ENDBRANCH   7   8
ENDBRANCH   6   7
ENDBRANCH   5   6
ENDBRANCH   3   5
ENDBRANCH   1   3
TORSDOF 15
ENDMDL
MODEL 3
REMARK VINA RESULT:      -4.6      3.688      8.481
REMARK  15 active torsions:
REMARK  status: ('A' for Active; 'I' for Inactive)
REMARK    1  A    between atoms: O_1  and  C_22 
REMARK    2  A    between atoms: C_3  and  C_4 
REMARK    3  A    between atoms: C_3  and  C_5 
REMARK    4  A    between atoms: C_4  and  C_6 
REMARK    5  A    between atoms: C_5  and  C_7 
REMARK    6  A    between atoms: C_9  and  C_10 
REMARK    7  A    between atoms: C_9  and  C_13 
REMARK    8  A    between atoms: C_10  and  C_14 
REMARK    9  A    between atoms: C_11  and  C_12 
REMARK   10  A    between atoms: C_12  and  C_16 
REMARK   11  A    between atoms: C_13  and  C_22 
REMARK   12  A    between atoms: C_15  and  C_17 
REMARK   13  A    between atoms: C_15  and  C_20 
REMARK   14  A    between atoms: C_18  and  C_19 
REMARK   15  A    between atoms: C_18  and  C_21 
ROOT
HETATM    1  O   UNL     1      28.291  11.393 -14.670  1.00  0.00    -0.776 OA
HETATM    2  H   UNL     1      28.633  12.271 -14.890  1.00  0.00     0.167 HD
ENDROOT
BRANCH   1   3
HETATM    3  C   UNL     1      29.039  10.498 -13.989  1.00  0.00     0.139 C 
HETATM    4  O   UNL     1      29.028  10.495 -12.767  1.00  0.00    -0.650 OA
BRANCH   3   5
HETATM    5  C   UNL     1      29.893   9.514 -14.740  1.00  0.00     0.110 C 
BRANCH   5   6
HETATM    6  C   UNL     1      31.349   9.513 -14.252  1.00  0.00     0.014 C 
BRANCH   6   7
HETATM    7  C   UNL     1      31.871   8.103 -13.951  1.00  0.00     0.027 C 
BRANCH   7   8
HETATM    8  C   UNL     1      30.854   7.348 -13.132  1.00  0.00    -0.030 C 
HETATM    9  C   UNL     1      31.077   6.179 -12.502  1.00  0.00    -0.027 C 
BRANCH   9  10
HETATM   10  C   UNL     1      32.387   5.432 -12.483  1.00  0.00     0.053 C 
BRANCH  10  11
HETATM   11  C   UNL     1      33.399   6.124 -11.596  1.00  0.00    -0.027 C 
HETATM   12  C   UNL     1      33.453   6.112 -10.249  1.00  0.00    -0.027 C 
BRANCH  12  13
HETATM   13  C   UNL     1      32.523   5.387  -9.309  1.00  0.00     0.053 C 
BRANCH  13  14
HETATM   14  C   UNL     1      31.434   6.321  -8.837  1.00  0.00    -0.027 C 
HETATM   15  C   UNL     1      30.720   6.165  -7.703  1.00  0.00    -0.027 C 
BRANCH  15  16
HETATM   16  C   UNL     1      30.888   5.021  -6.738  1.00  0.00     0.053 C 
BRANCH  16  17
HETATM   17  C   UNL     1      30.702   5.470  -5.310  1.00  0.00    -0.027 C 
HETATM   18  C   UNL     1      31.716   5.767  -4.479  1.00  0.00    -0.030 C 
BRANCH  18  19
HETATM   19  C   UNL     1      33.177   5.685  -4.842  1.00  0.00     0.027 C 
BRANCH  19  20
HETATM   20  C   UNL     1      33.729   7.095  -5.076  1.00  0.00     0.004 C 
BRANCH  20  21
HETATM   21  C   UNL     1      34.236   7.261  -6.513  1.00  0.00    -0.000 C 
BRANCH  21  22
HETATM   22  C   UNL     1      33.831   8.626  -7.080  1.00  0.00    -0.005 C 
HETATM   23  C   UNL     1      32.508   9.099  -6.486  1.00  0.00     0.005 C 
ENDBRANCH  21  22
ENDBRANCH  20  21
ENDBRANCH  19  20
ENDBRANCH  18  19
ENDBRANCH  16  17
ENDBRANCH  15  16
ENDBRANCH  13  14
ENDBRANCH  12  13
ENDBRANCH  10  11
ENDBRANCH   9  10
ENDBRANCH   7   8
ENDBRANCH   6   7
ENDBRANCH   5   6
ENDBRANCH   3   5
ENDBRANCH   1   3
TORSDOF 15
ENDMDL
MODEL 4
REMARK VINA RESULT:      -4.6     48.546     50.633
REMARK  15 active torsions:
REMARK  status: ('A' for Active; 'I' for Inactive)
REMARK    1  A    between atoms: O_1  and  C_22 
REMARK    2  A    between atoms: C_3  and  C_4 
REMARK    3  A    between atoms: C_3  and  C_5 
REMARK    4  A    between atoms: C_4  and  C_6 
REMARK    5  A    between atoms: C_5  and  C_7 
REMARK    6  A    between atoms: C_9  and  C_10 
REMARK    7  A    between atoms: C_9  and  C_13 
REMARK    8  A    between atoms: C_10  and  C_14 
REMARK    9  A    between atoms: C_11  and  C_12 
REMARK   10  A    between atoms: C_12  and  C_16 
REMARK   11  A    between atoms: C_13  and  C_22 
REMARK   12  A    between atoms: C_15  and  C_17 
REMARK   13  A    between atoms: C_15  and  C_20 
REMARK   14  A    between atoms: C_18  and  C_19 
REMARK   15  A    between atoms: C_18  and  C_21 
ROOT
HETATM    1  O   UNL     1     -20.255  11.451 -13.667  1.00  0.00    -0.776 OA
HETATM    2  H   UNL     1     -20.582  10.713 -13.134  1.00  0.00     0.167 HD
ENDROOT
BRANCH   1   3
HETATM    3  C   UNL     1     -20.237  12.712 -13.185  1.00  0.00     0.139 C 
HETATM    4  O   UNL     1     -20.323  13.662 -13.950  1.00  0.00    -0.650 OA
BRANCH   3   5
HETATM    5  C   UNL     1     -20.097  12.945 -11.705  1.00  0.00     0.110 C 
BRANCH   5   6
HETATM    6  C   UNL     1     -18.799  12.351 -11.140  1.00  0.00     0.014 C 
BRANCH   6   7
HETATM    7  C   UNL     1     -18.643  12.596  -9.634  1.00  0.00     0.027 C 
BRANCH   7   8
HETATM    8  C   UNL     1     -19.809  13.408  -9.128  1.00  0.00    -0.030 C 
HETATM    9  C   UNL     1     -20.376  13.279  -7.914  1.00  0.00    -0.027 C 
BRANCH   9  10
HETATM   10  C   UNL     1     -19.932  12.320  -6.839  1.00  0.00     0.053 C 
BRANCH  10  11
HETATM   11  C   UNL     1     -19.428  13.058  -5.619  1.00  0.00    -0.027 C 
HETATM   12  C   UNL     1     -18.433  12.687  -4.788  1.00  0.00    -0.027 C 
BRANCH  12  13
HETATM   13  C   UNL     1     -17.574  11.452  -4.896  1.00  0.00     0.053 C 
BRANCH  13  14
HETATM   14  C   UNL     1     -16.113  11.836  -4.874  1.00  0.00    -0.027 C 
HETATM   15  C   UNL     1     -15.261  11.696  -5.910  1.00  0.00    -0.027 C 
BRANCH  15  16
HETATM   16  C   UNL     1     -15.633  11.117  -7.249  1.00  0.00     0.053 C 
BRANCH  16  17
HETATM   17  C   UNL     1     -14.426  10.572  -7.971  1.00  0.00    -0.027 C 
HETATM   18  C   UNL     1     -14.182  10.769  -9.278  1.00  0.00    -0.030 C 
BRANCH  18  19
HETATM   19  C   UNL     1     -15.075  11.546 -10.213  1.00  0.00     0.027 C 
BRANCH  19  20
HETATM   20  C   UNL     1     -15.648  10.605 -11.278  1.00  0.00     0.004 C 
BRANCH  20  21
HETATM   21  C   UNL     1     -15.411  11.154 -12.689  1.00  0.00    -0.000 C 
BRANCH  21  22
HETATM   22  C   UNL     1     -16.631  10.906 -13.584  1.00  0.00    -0.005 C 
HETATM   23  C   UNL     1     -16.769  11.997 -14.641  1.00  0.00     0.005 C 
ENDBRANCH  21  22
ENDBRANCH  20  21
ENDBRANCH  19  20
ENDBRANCH  18  19
ENDBRANCH  16  17
ENDBRANCH  15  16
ENDBRANCH  13  14
ENDBRANCH  12  13
ENDBRANCH  10  11
ENDBRANCH   9  10
ENDBRANCH   7   8
ENDBRANCH   6   7
ENDBRANCH   5   6
ENDBRANCH   3   5
ENDBRANCH   1   3
TORSDOF 15
ENDMDL
MODEL 5
REMARK VINA RESULT:      -4.5      3.975      6.403
REMARK  15 active torsions:
REMARK  status: ('A' for Active; 'I' for Inactive)
REMARK    1  A    between atoms: O_1  and  C_22 
REMARK    2  A    between atoms: C_3  and  C_4 
REMARK    3  A    between atoms: C_3  and  C_5 
REMARK    4  A    between atoms: C_4  and  C_6 
REMARK    5  A    between atoms: C_5  and  C_7 
REMARK    6  A    between atoms: C_9  and  C_10 
REMARK    7  A    between atoms: C_9  and  C_13 
REMARK    8  A    between atoms: C_10  and  C_14 
REMARK    9  A    between atoms: C_11  and  C_12 
REMARK   10  A    between atoms: C_12  and  C_16 
REMARK   11  A    between atoms: C_13  and  C_22 
REMARK   12  A    between atoms: C_15  and  C_17 
REMARK   13  A    between atoms: C_15  and  C_20 
REMARK   14  A    between atoms: C_18  and  C_19 
REMARK   15  A    between atoms: C_18  and  C_21 
ROOT
HETATM    1  O   UNL     1      27.881  10.827 -14.515  1.00  0.00    -0.776 OA
HETATM    2  H   UNL     1      27.417  11.646 -14.739  1.00  0.00     0.167 HD
ENDROOT
BRANCH   1   3
HETATM    3  C   UNL     1      29.004  10.837 -13.765  1.00  0.00     0.139 C 
HETATM    4  O   UNL     1      29.678   9.823 -13.659  1.00  0.00    -0.650 OA
BRANCH   3   5
HETATM    5  C   UNL     1      29.415  12.095 -13.052  1.00  0.00     0.110 C 
BRANCH   5   6
HETATM    6  C   UNL     1      30.144  11.807 -11.732  1.00  0.00     0.014 C 
BRANCH   6   7
HETATM    7  C   UNL     1      29.193  11.761 -10.529  1.00  0.00     0.027 C 
BRANCH   7   8
HETATM    8  C   UNL     1      29.110  10.351 -10.001  1.00  0.00    -0.030 C 
HETATM    9  C   UNL     1      30.034   9.757  -9.222  1.00  0.00    -0.027 C 
BRANCH   9  10
HETATM   10  C   UNL     1      31.301  10.404  -8.721  1.00  0.00     0.053 C 
BRANCH  10  11
HETATM   11  C   UNL     1      32.458   9.430  -8.740  1.00  0.00    -0.027 C 
HETATM   12  C   UNL     1      33.210   9.070  -9.801  1.00  0.00    -0.027 C 
BRANCH  12  13
HETATM   13  C   UNL     1      33.083   9.572 -11.216  1.00  0.00     0.053 C 
BRANCH  13  14
HETATM   14  C   UNL     1      34.213   9.032 -12.060  1.00  0.00    -0.027 C 
HETATM   15  C   UNL     1      34.060   8.377 -13.229  1.00  0.00    -0.027 C 
BRANCH  15  16
HETATM   16  C   UNL     1      32.731   8.068 -13.867  1.00  0.00     0.053 C 
BRANCH  16  17
HETATM   17  C   UNL     1      32.426   6.591 -13.820  1.00  0.00    -0.027 C 
HETATM   18  C   UNL     1      31.431   6.054 -13.092  1.00  0.00    -0.030 C 
BRANCH  18  19
HETATM   19  C   UNL     1      30.489   6.837 -12.213  1.00  0.00     0.027 C 
BRANCH  19  20
HETATM   20  C   UNL     1      30.839   6.596 -10.741  1.00  0.00     0.004 C 
BRANCH  20  21
HETATM   21  C   UNL     1      31.502   5.229 -10.545  1.00  0.00    -0.000 C 
BRANCH  21  22
HETATM   22  C   UNL     1      32.796   5.360  -9.734  1.00  0.00    -0.005 C 
HETATM   23  C   UNL     1      33.997   5.593 -10.646  1.00  0.00     0.005 C 
ENDBRANCH  21  22
ENDBRANCH  20  21
ENDBRANCH  19  20
ENDBRANCH  18  19
ENDBRANCH  16  17
ENDBRANCH  15  16
ENDBRANCH  13  14
ENDBRANCH  12  13
ENDBRANCH  10  11
ENDBRANCH   9  10
ENDBRANCH   7   8
ENDBRANCH   6   7
ENDBRANCH   5   6
ENDBRANCH   3   5
ENDBRANCH   1   3
TORSDOF 15
ENDMDL
MODEL 6
REMARK VINA RESULT:      -4.5      4.498      7.180
REMARK  15 active torsions:
REMARK  status: ('A' for Active; 'I' for Inactive)
REMARK    1  A    between atoms: O_1  and  C_22 
REMARK    2  A    between atoms: C_3  and  C_4 
REMARK    3  A    between atoms: C_3  and  C_5 
REMARK    4  A    between atoms: C_4  and  C_6 
REMARK    5  A    between atoms: C_5  and  C_7 
REMARK    6  A    between atoms: C_9  and  C_10 
REMARK    7  A    between atoms: C_9  and  C_13 
REMARK    8  A    between atoms: C_10  and  C_14 
REMARK    9  A    between atoms: C_11  and  C_12 
REMARK   10  A    between atoms: C_12  and  C_16 
REMARK   11  A    between atoms: C_13  and  C_22 
REMARK   12  A    between atoms: C_15  and  C_17 
REMARK   13  A    between atoms: C_15  and  C_20 
REMARK   14  A    between atoms: C_18  and  C_19 
REMARK   15  A    between atoms: C_18  and  C_21 
ROOT
HETATM    1  O   UNL     1      28.337  13.375 -16.874  1.00  0.00    -0.776 OA
HETATM    2  H   UNL     1      28.487  12.606 -17.441  1.00  0.00     0.167 HD
ENDROOT
BRANCH   1   3
HETATM    3  C   UNL     1      28.233  13.251 -15.534  1.00  0.00     0.139 C 
HETATM    4  O   UNL     1      27.506  14.005 -14.904  1.00  0.00    -0.650 OA
BRANCH   3   5
HETATM    5  C   UNL     1      29.022  12.190 -14.818  1.00  0.00     0.110 C 
BRANCH   5   6
HETATM    6  C   UNL     1      29.346  10.992 -15.722  1.00  0.00     0.014 C 
BRANCH   6   7
HETATM    7  C   UNL     1      30.826  10.594 -15.669  1.00  0.00     0.027 C 
BRANCH   7   8
HETATM    8  C   UNL     1      31.133   9.629 -16.787  1.00  0.00    -0.030 C 
HETATM    9  C   UNL     1      31.088   8.287 -16.689  1.00  0.00    -0.027 C 
BRANCH   9  10
HETATM   10  C   UNL     1      30.701   7.514 -15.454  1.00  0.00     0.053 C 
BRANCH  10  11
HETATM   11  C   UNL     1      30.876   6.026 -15.661  1.00  0.00    -0.027 C 
HETATM   12  C   UNL     1      31.352   5.124 -14.778  1.00  0.00    -0.027 C 
BRANCH  12  13
HETATM   13  C   UNL     1      31.804   5.390 -13.365  1.00  0.00     0.053 C 
BRANCH  13  14
HETATM   14  C   UNL     1      30.638   5.253 -12.415  1.00  0.00    -0.027 C 
HETATM   15  C   UNL     1      30.380   6.081 -11.381  1.00  0.00    -0.027 C 
BRANCH  15  16
HETATM   16  C   UNL     1      31.231   7.265 -11.004  1.00  0.00     0.053 C 
BRANCH  16  17
HETATM   17  C   UNL     1      30.895   8.475 -11.840  1.00  0.00    -0.027 C 
HETATM   18  C   UNL     1      31.817   9.281 -12.396  1.00  0.00    -0.030 C 
BRANCH  18  19
HETATM   19  C   UNL     1      33.308   9.105 -12.261  1.00  0.00     0.027 C 
BRANCH  19  20
HETATM   20  C   UNL     1      33.832   8.246 -13.416  1.00  0.00     0.004 C 
BRANCH  20  21
HETATM   21  C   UNL     1      34.125   9.101 -14.654  1.00  0.00    -0.000 C 
BRANCH  21  22
HETATM   22  C   UNL     1      34.998   8.334 -15.654  1.00  0.00    -0.005 C 
HETATM   23  C   UNL     1      34.443   6.937 -15.913  1.00  0.00     0.005 C 
ENDBRANCH  21  22
ENDBRANCH  20  21
ENDBRANCH  19  20
ENDBRANCH  18  19
ENDBRANCH  16  17
ENDBRANCH  15  16
ENDBRANCH  13  14
ENDBRANCH  12  13
ENDBRANCH  10  11
ENDBRANCH   9  10
ENDBRANCH   7   8
ENDBRANCH   6   7
ENDBRANCH   5   6
ENDBRANCH   3   5
ENDBRANCH   1   3
TORSDOF 15
ENDMDL
MODEL 7
REMARK VINA RESULT:      -4.4      5.306      7.094
REMARK  15 active torsions:
REMARK  status: ('A' for Active; 'I' for Inactive)
REMARK    1  A    between atoms: O_1  and  C_22 
REMARK    2  A    between atoms: C_3  and  C_4 
REMARK    3  A    between atoms: C_3  and  C_5 
REMARK    4  A    between atoms: C_4  and  C_6 
REMARK    5  A    between atoms: C_5  and  C_7 
REMARK    6  A    between atoms: C_9  and  C_10 
REMARK    7  A    between atoms: C_9  and  C_13 
REMARK    8  A    between atoms: C_10  and  C_14 
REMARK    9  A    between atoms: C_11  and  C_12 
REMARK   10  A    between atoms: C_12  and  C_16 
REMARK   11  A    between atoms: C_13  and  C_22 
REMARK   12  A    between atoms: C_15  and  C_17 
REMARK   13  A    between atoms: C_15  and  C_20 
REMARK   14  A    between atoms: C_18  and  C_19 
REMARK   15  A    between atoms: C_18  and  C_21 
ROOT
HETATM    1  O   UNL     1      28.711  12.573 -17.504  1.00  0.00    -0.776 OA
HETATM    2  H   UNL     1      28.816  11.630 -17.691  1.00  0.00     0.167 HD
ENDROOT
BRANCH   1   3
HETATM    3  C   UNL     1      28.618  13.033 -16.239  1.00  0.00     0.139 C 
HETATM    4  O   UNL     1      27.934  14.016 -15.992  1.00  0.00    -0.650 OA
BRANCH   3   5
HETATM    5  C   UNL     1      29.369  12.341 -15.135  1.00  0.00     0.110 C 
BRANCH   5   6
HETATM    6  C   UNL     1      29.314  10.812 -15.260  1.00  0.00     0.014 C 
BRANCH   6   7
HETATM    7  C   UNL     1      30.695  10.157 -15.130  1.00  0.00     0.027 C 
BRANCH   7   8
HETATM    8  C   UNL     1      31.557  10.553 -16.302  1.00  0.00    -0.030 C 
HETATM    9  C   UNL     1      31.702   9.840 -17.435  1.00  0.00    -0.027 C 
BRANCH   9  10
HETATM   10  C   UNL     1      31.010   8.536 -17.742  1.00  0.00     0.053 C 
BRANCH  10  11
HETATM   11  C   UNL     1      31.562   7.907 -19.003  1.00  0.00    -0.027 C 
HETATM   12  C   UNL     1      31.998   6.641 -19.164  1.00  0.00    -0.027 C 
BRANCH  12  13
HETATM   13  C   UNL     1      32.017   5.548 -18.126  1.00  0.00     0.053 C 
BRANCH  13  14
HETATM   14  C   UNL     1      30.628   5.336 -17.572  1.00  0.00    -0.027 C 
HETATM   15  C   UNL     1      30.330   5.195 -16.265  1.00  0.00    -0.027 C 
BRANCH  15  16
HETATM   16  C   UNL     1      31.344   5.210 -15.151  1.00  0.00     0.053 C 
BRANCH  16  17
HETATM   17  C   UNL     1      31.539   6.600 -14.600  1.00  0.00    -0.027 C 
HETATM   18  C   UNL     1      32.693   7.285 -14.683  1.00  0.00    -0.030 C 
BRANCH  18  19
HETATM   19  C   UNL     1      33.957   6.767 -15.323  1.00  0.00     0.027 C 
BRANCH  19  20
HETATM   20  C   UNL     1      34.572   7.858 -16.204  1.00  0.00     0.004 C 
BRANCH  20  21
HETATM   21  C   UNL     1      34.914   9.107 -15.384  1.00  0.00    -0.000 C 
BRANCH  21  22
HETATM   22  C   UNL     1      35.859  10.030 -16.163  1.00  0.00    -0.005 C 
HETATM   23  C   UNL     1      35.302  10.348 -17.547  1.00  0.00     0.005 C 
ENDBRANCH  21  22
ENDBRANCH  20  21
ENDBRANCH  19  20
ENDBRANCH  18  19
ENDBRANCH  16  17
ENDBRANCH  15  16
ENDBRANCH  13  14
ENDBRANCH  12  13
ENDBRANCH  10  11
ENDBRANCH   9  10
ENDBRANCH   7   8
ENDBRANCH   6   7
ENDBRANCH   5   6
ENDBRANCH   3   5
ENDBRANCH   1   3
TORSDOF 15
ENDMDL
MODEL 8
REMARK VINA RESULT:      -4.4      5.449      8.702
REMARK  15 active torsions:
REMARK  status: ('A' for Active; 'I' for Inactive)
REMARK    1  A    between atoms: O_1  and  C_22 
REMARK    2  A    between atoms: C_3  and  C_4 
REMARK    3  A    between atoms: C_3  and  C_5 
REMARK    4  A    between atoms: C_4  and  C_6 
REMARK    5  A    between atoms: C_5  and  C_7 
REMARK    6  A    between atoms: C_9  and  C_10 
REMARK    7  A    between atoms: C_9  and  C_13 
REMARK    8  A    between atoms: C_10  and  C_14 
REMARK    9  A    between atoms: C_11  and  C_12 
REMARK   10  A    between atoms: C_12  and  C_16 
REMARK   11  A    between atoms: C_13  and  C_22 
REMARK   12  A    between atoms: C_15  and  C_17 
REMARK   13  A    between atoms: C_15  and  C_20 
REMARK   14  A    between atoms: C_18  and  C_19 
REMARK   15  A    between atoms: C_18  and  C_21 
ROOT
HETATM    1  O   UNL     1      30.591  11.745 -17.811  1.00  0.00    -0.776 OA
HETATM    2  H   UNL     1      31.256  12.290 -18.253  1.00  0.00     0.167 HD
ENDROOT
BRANCH   1   3
HETATM    3  C   UNL     1      29.472  11.344 -18.452  1.00  0.00     0.139 C 
HETATM    4  O   UNL     1      28.493  12.075 -18.491  1.00  0.00    -0.650 OA
BRANCH   3   5
HETATM    5  C   UNL     1      29.430   9.991 -19.108  1.00  0.00     0.110 C 
BRANCH   5   6
HETATM    6  C   UNL     1      30.728   9.666 -19.860  1.00  0.00     0.014 C 
BRANCH   6   7
HETATM    7  C   UNL     1      30.555   9.708 -21.384  1.00  0.00     0.027 C 
BRANCH   7   8
HETATM    8  C   UNL     1      31.722  10.431 -22.007  1.00  0.00    -0.030 C 
HETATM    9  C   UNL     1      32.851   9.846 -22.452  1.00  0.00    -0.027 C 
BRANCH   9  10
HETATM   10  C   UNL     1      33.136   8.366 -22.427  1.00  0.00     0.053 C 
BRANCH  10  11
HETATM   11  C   UNL     1      34.428   8.069 -21.697  1.00  0.00    -0.027 C 
HETATM   12  C   UNL     1      34.573   7.668 -20.417  1.00  0.00    -0.027 C 
BRANCH  12  13
HETATM   13  C   UNL     1      33.475   7.401 -19.420  1.00  0.00     0.053 C 
BRANCH  13  14
HETATM   14  C   UNL     1      33.208   5.917 -19.329  1.00  0.00    -0.027 C 
HETATM   15  C   UNL     1      32.114   5.360 -18.771  1.00  0.00    -0.027 C 
BRANCH  15  16
HETATM   16  C   UNL     1      30.991   6.137 -18.134  1.00  0.00     0.053 C 
BRANCH  16  17
HETATM   17  C   UNL     1      30.220   5.289 -17.153  1.00  0.00    -0.027 C 
HETATM   18  C   UNL     1      30.474   5.250 -15.834  1.00  0.00    -0.030 C 
BRANCH  18  19
HETATM   19  C   UNL     1      31.565   6.030 -15.144  1.00  0.00     0.027 C 
BRANCH  19  20
HETATM   20  C   UNL     1      32.860   5.212 -15.144  1.00  0.00     0.004 C 
BRANCH  20  21
HETATM   21  C   UNL     1      34.064   6.080 -15.529  1.00  0.00    -0.000 C 
BRANCH  21  22
HETATM   22  C   UNL     1      33.640   7.537 -15.746  1.00  0.00    -0.005 C 
HETATM   23  C   UNL     1      34.819   8.393 -16.197  1.00  0.00     0.005 C 
ENDBRANCH  21  22
ENDBRANCH  20  21
ENDBRANCH  19  20
ENDBRANCH  18  19
ENDBRANCH  16  17
ENDBRANCH  15  16
ENDBRANCH  13  14
ENDBRANCH  12  13
ENDBRANCH  10  11
ENDBRANCH   9  10
ENDBRANCH   7   8
ENDBRANCH   6   7
ENDBRANCH   5   6
ENDBRANCH   3   5
ENDBRANCH   1   3
TORSDOF 15
ENDMDL
MODEL 9
REMARK VINA RESULT:      -4.4     46.621     48.571
REMARK  15 active torsions:
REMARK  status: ('A' for Active; 'I' for Inactive)
REMARK    1  A    between atoms: O_1  and  C_22 
REMARK    2  A    between atoms: C_3  and  C_4 
REMARK    3  A    between atoms: C_3  and  C_5 
REMARK    4  A    between atoms: C_4  and  C_6 
REMARK    5  A    between atoms: C_5  and  C_7 
REMARK    6  A    between atoms: C_9  and  C_10 
REMARK    7  A    between atoms: C_9  and  C_13 
REMARK    8  A    between atoms: C_10  and  C_14 
REMARK    9  A    between atoms: C_11  and  C_12 
REMARK   10  A    between atoms: C_12  and  C_16 
REMARK   11  A    between atoms: C_13  and  C_22 
REMARK   12  A    between atoms: C_15  and  C_17 
REMARK   13  A    between atoms: C_15  and  C_20 
REMARK   14  A    between atoms: C_18  and  C_19 
REMARK   15  A    between atoms: C_18  and  C_21 
ROOT
HETATM    1  O   UNL     1     -11.090  11.072 -11.460  1.00  0.00    -0.776 OA
HETATM    2  H   UNL     1     -10.636  10.247 -11.237  1.00  0.00     0.167 HD
ENDROOT
BRANCH   1   3
HETATM    3  C   UNL     1     -12.173  11.082 -12.267  1.00  0.00     0.139 C 
HETATM    4  O   UNL     1     -12.040  10.931 -13.472  1.00  0.00    -0.650 OA
BRANCH   3   5
HETATM    5  C   UNL     1     -13.541  11.291 -11.679  1.00  0.00     0.110 C 
BRANCH   5   6
HETATM    6  C   UNL     1     -14.066  10.040 -10.961  1.00  0.00     0.014 C 
BRANCH   6   7
HETATM    7  C   UNL     1     -15.382  10.294 -10.214  1.00  0.00     0.027 C 
BRANCH   7   8
HETATM    8  C   UNL     1     -15.683  11.772 -10.205  1.00  0.00    -0.030 C 
HETATM    9  C   UNL     1     -16.874  12.320  -9.895  1.00  0.00    -0.027 C 
BRANCH   9  10
HETATM   10  C   UNL     1     -18.106  11.556  -9.479  1.00  0.00     0.053 C 
BRANCH  10  11
HETATM   11  C   UNL     1     -19.322  12.015 -10.253  1.00  0.00    -0.027 C 
HETATM   12  C   UNL     1     -19.575  11.837 -11.565  1.00  0.00    -0.027 C 
BRANCH  12  13
HETATM   13  C   UNL     1     -18.708  11.117 -12.567  1.00  0.00     0.053 C 
BRANCH  13  14
HETATM   14  C   UNL     1     -18.204  12.089 -13.607  1.00  0.00    -0.027 C 
HETATM   15  C   UNL     1     -17.089  11.921 -14.347  1.00  0.00    -0.027 C 
BRANCH  15  16
HETATM   16  C   UNL     1     -16.161  10.740 -14.237  1.00  0.00     0.053 C 
BRANCH  16  17
HETATM   17  C   UNL     1     -16.425   9.726 -15.322  1.00  0.00    -0.027 C 
HETATM   18  C   UNL     1     -16.150   9.931 -16.622  1.00  0.00    -0.030 C 
BRANCH  18  19
HETATM   19  C   UNL     1     -15.553  11.196 -17.186  1.00  0.00     0.027 C 
BRANCH  19  20
HETATM   20  C   UNL     1     -15.088  10.948 -18.625  1.00  0.00     0.004 C 
BRANCH  20  21
HETATM   21  C   UNL     1     -16.279  10.865 -19.586  1.00  0.00    -0.000 C 
BRANCH  21  22
HETATM   22  C   UNL     1     -17.252  12.027 -19.353  1.00  0.00    -0.005 C 
HETATM   23  C   UNL     1     -18.184  12.213 -20.546  1.00  0.00     0.005 C 
ENDBRANCH  21  22
ENDBRANCH  20  21
ENDBRANCH  19  20
ENDBRANCH  18  19
ENDBRANCH  16  17
ENDBRANCH  15  16
ENDBRANCH  13  14
ENDBRANCH  12  13
ENDBRANCH  10  11
ENDBRANCH   9  10
ENDBRANCH   7   8
ENDBRANCH   6   7
ENDBRANCH   5   6
ENDBRANCH   3   5
ENDBRANCH   1   3
TORSDOF 15
ENDMDL
MODEL 10
REMARK VINA RESULT:      -4.3     47.109     49.357
REMARK  15 active torsions:
REMARK  status: ('A' for Active; 'I' for Inactive)
REMARK    1  A    between atoms: O_1  and  C_22 
REMARK    2  A    between atoms: C_3  and  C_4 
REMARK    3  A    between atoms: C_3  and  C_5 
REMARK    4  A    between atoms: C_4  and  C_6 
REMARK    5  A    between atoms: C_5  and  C_7 
REMARK    6  A    between atoms: C_9  and  C_10 
REMARK    7  A    between atoms: C_9  and  C_13 
REMARK    8  A    between atoms: C_10  and  C_14 
REMARK    9  A    between atoms: C_11  and  C_12 
REMARK   10  A    between atoms: C_12  and  C_16 
REMARK   11  A    between atoms: C_13  and  C_22 
REMARK   12  A    between atoms: C_15  and  C_17 
REMARK   13  A    between atoms: C_15  and  C_20 
REMARK   14  A    between atoms: C_18  and  C_19 
REMARK   15  A    between atoms: C_18  and  C_21 
ROOT
HETATM    1  O   UNL     1     -17.042   9.540 -18.143  1.00  0.00    -0.776 OA
HETATM    2  H   UNL     1     -16.590   9.037 -18.834  1.00  0.00     0.167 HD
ENDROOT
BRANCH   1   3
HETATM    3  C   UNL     1     -16.609  10.761 -17.763  1.00  0.00     0.139 C 
HETATM    4  O   UNL     1     -15.783  11.356 -18.441  1.00  0.00    -0.650 OA
BRANCH   3   5
HETATM    5  C   UNL     1     -17.135  11.381 -16.498  1.00  0.00     0.110 C 
BRANCH   5   6
HETATM    6  C   UNL     1     -16.090  11.391 -15.374  1.00  0.00     0.014 C 
BRANCH   6   7
HETATM    7  C   UNL     1     -16.690  11.759 -14.011  1.00  0.00     0.027 C 
BRANCH   7   8
HETATM    8  C   UNL     1     -18.077  12.321 -14.202  1.00  0.00    -0.030 C 
HETATM    9  C   UNL     1     -19.087  12.214 -13.319  1.00  0.00    -0.027 C 
BRANCH   9  10
HETATM   10  C   UNL     1     -19.004  11.534 -11.975  1.00  0.00     0.053 C 
BRANCH  10  11
HETATM   11  C   UNL     1     -19.053  12.542 -10.848  1.00  0.00    -0.027 C 
HETATM   12  C   UNL     1     -18.237  12.615  -9.777  1.00  0.00    -0.027 C 
BRANCH  12  13
HETATM   13  C   UNL     1     -17.067  11.717  -9.464  1.00  0.00     0.053 C 
BRANCH  13  14
HETATM   14  C   UNL     1     -15.856  12.151 -10.255  1.00  0.00    -0.027 C 
HETATM   15  C   UNL     1     -14.757  11.397 -10.464  1.00  0.00    -0.027 C 
BRANCH  15  16
HETATM   16  C   UNL     1     -14.563  10.004  -9.925  1.00  0.00     0.053 C 
BRANCH  16  17
HETATM   17  C   UNL     1     -13.273   9.886  -9.151  1.00  0.00    -0.027 C 
HETATM   18  C   UNL     1     -13.209   9.787  -7.812  1.00  0.00    -0.030 C 
BRANCH  18  19
HETATM   19  C   UNL     1     -14.402   9.791  -6.891  1.00  0.00     0.027 C 
BRANCH  19  20
HETATM   20  C   UNL     1     -14.052  10.536  -5.598  1.00  0.00     0.004 C 
BRANCH  20  21
HETATM   21  C   UNL     1     -14.908  11.797  -5.436  1.00  0.00    -0.000 C 
BRANCH  21  22
HETATM   22  C   UNL     1     -16.361  11.527  -5.845  1.00  0.00    -0.005 C 
HETATM   23  C   UNL     1     -17.337  12.247  -4.919  1.00  0.00     0.005 C 
ENDBRANCH  21  22
ENDBRANCH  20  21
ENDBRANCH  19  20
ENDBRANCH  18  19
ENDBRANCH  16  17
ENDBRANCH  15  16
ENDBRANCH  13  14
ENDBRANCH  12  13
ENDBRANCH  10  11
ENDBRANCH   9  10
ENDBRANCH   7   8
ENDBRANCH   6   7
ENDBRANCH   5   6
ENDBRANCH   3   5
ENDBRANCH   1   3
TORSDOF 15
ENDMDL
MODEL 11
REMARK VINA RESULT:      -4.3      3.395      6.952
REMARK  15 active torsions:
REMARK  status: ('A' for Active; 'I' for Inactive)
REMARK    1  A    between atoms: O_1  and  C_22 
REMARK    2  A    between atoms: C_3  and  C_4 
REMARK    3  A    between atoms: C_3  and  C_5 
REMARK    4  A    between atoms: C_4  and  C_6 
REMARK    5  A    between atoms: C_5  and  C_7 
REMARK    6  A    between atoms: C_9  and  C_10 
REMARK    7  A    between atoms: C_9  and  C_13 
REMARK    8  A    between atoms: C_10  and  C_14 
REMARK    9  A    between atoms: C_11  and  C_12 
REMARK   10  A    between atoms: C_12  and  C_16 
REMARK   11  A    between atoms: C_13  and  C_22 
REMARK   12  A    between atoms: C_15  and  C_17 
REMARK   13  A    between atoms: C_15  and  C_20 
REMARK   14  A    between atoms: C_18  and  C_19 
REMARK   15  A    between atoms: C_18  and  C_21 
ROOT
HETATM    1  O   UNL     1      33.414   4.389 -16.138  1.00  0.00    -0.776 OA
HETATM    2  H   UNL     1      33.663   3.897 -16.934  1.00  0.00     0.167 HD
ENDROOT
BRANCH   1   3
HETATM    3  C   UNL     1      32.573   5.443 -16.198  1.00  0.00     0.139 C 
HETATM    4  O   UNL     1      33.005   6.579 -16.060  1.00  0.00    -0.650 OA
BRANCH   3   5
HETATM    5  C   UNL     1      31.104   5.216 -16.422  1.00  0.00     0.110 C 
BRANCH   5   6
HETATM    6  C   UNL     1      30.731   5.234 -17.911  1.00  0.00     0.014 C 
BRANCH   6   7
HETATM    7  C   UNL     1      31.931   5.537 -18.818  1.00  0.00     0.027 C 
BRANCH   7   8
HETATM    8  C   UNL     1      31.471   6.308 -20.030  1.00  0.00    -0.030 C 
HETATM    9  C   UNL     1      31.072   7.594 -20.026  1.00  0.00    -0.027 C 
BRANCH   9  10
HETATM   10  C   UNL     1      31.039   8.496 -18.818  1.00  0.00     0.053 C 
BRANCH  10  11
HETATM   11  C   UNL     1      30.011   9.593 -18.982  1.00  0.00    -0.027 C 
HETATM   12  C   UNL     1      29.740  10.598 -18.124  1.00  0.00    -0.027 C 
BRANCH  12  13
HETATM   13  C   UNL     1      30.418  10.874 -16.806  1.00  0.00     0.053 C 
BRANCH  13  14
HETATM   14  C   UNL     1      29.426  10.732 -15.675  1.00  0.00    -0.027 C 
HETATM   15  C   UNL     1      29.389   9.703 -14.803  1.00  0.00    -0.027 C 
BRANCH  15  16
HETATM   16  C   UNL     1      30.326   8.524 -14.834  1.00  0.00     0.053 C 
BRANCH  16  17
HETATM   17  C   UNL     1      31.227   8.502 -13.624  1.00  0.00    -0.027 C 
HETATM   18  C   UNL     1      31.409   7.423 -12.844  1.00  0.00    -0.030 C 
BRANCH  18  19
HETATM   19  C   UNL     1      30.738   6.088 -13.052  1.00  0.00     0.027 C 
BRANCH  19  20
HETATM   20  C   UNL     1      30.685   5.326 -11.724  1.00  0.00     0.004 C 
BRANCH  20  21
HETATM   21  C   UNL     1      31.325   6.138 -10.593  1.00  0.00    -0.000 C 
BRANCH  21  22
HETATM   22  C   UNL     1      32.482   5.363  -9.951  1.00  0.00    -0.005 C 
HETATM   23  C   UNL     1      33.782   5.576 -10.722  1.00  0.00     0.005 C 
ENDBRANCH  21  22
ENDBRANCH  20  21
ENDBRANCH  19  20
ENDBRANCH  18  19
ENDBRANCH  16  17
ENDBRANCH  15  16
ENDBRANCH  13  14
ENDBRANCH  12  13
ENDBRANCH  10  11
ENDBRANCH   9  10
ENDBRANCH   7   8
ENDBRANCH   6   7
ENDBRANCH   5   6
ENDBRANCH   3   5
ENDBRANCH   1   3
TORSDOF 15
ENDMDL
MODEL 12
REMARK VINA RESULT:      -4.3     47.899     50.194
REMARK  15 active torsions:
REMARK  status: ('A' for Active; 'I' for Inactive)
REMARK    1  A    between atoms: O_1  and  C_22 
REMARK    2  A    between atoms: C_3  and  C_4 
REMARK    3  A    between atoms: C_3  and  C_5 
REMARK    4  A    between atoms: C_4  and  C_6 
REMARK    5  A    between atoms: C_5  and  C_7 
REMARK    6  A    between atoms: C_9  and  C_10 
REMARK    7  A    between atoms: C_9  and  C_13 
REMARK    8  A    between atoms: C_10  and  C_14 
REMARK    9  A    between atoms: C_11  and  C_12 
REMARK   10  A    between atoms: C_12  and  C_16 
REMARK   11  A    between atoms: C_13  and  C_22 
REMARK   12  A    between atoms: C_15  and  C_17 
REMARK   13  A    between atoms: C_15  and  C_20 
REMARK   14  A    between atoms: C_18  and  C_19 
REMARK   15  A    between atoms: C_18  and  C_21 
ROOT
HETATM    1  O   UNL     1     -20.958  10.187 -18.125  1.00  0.00    -0.776 OA
HETATM    2  H   UNL     1     -21.755   9.644 -18.205  1.00  0.00     0.167 HD
ENDROOT
BRANCH   1   3
HETATM    3  C   UNL     1     -20.804  11.320 -18.842  1.00  0.00     0.139 C 
HETATM    4  O   UNL     1     -21.320  11.421 -19.945  1.00  0.00    -0.650 OA
BRANCH   3   5
HETATM    5  C   UNL     1     -19.985  12.451 -18.285  1.00  0.00     0.110 C 
BRANCH   5   6
HETATM    6  C   UNL     1     -18.477  12.171 -18.357  1.00  0.00     0.014 C 
BRANCH   6   7
HETATM    7  C   UNL     1     -17.871  12.539 -19.718  1.00  0.00     0.027 C 
BRANCH   7   8
HETATM    8  C   UNL     1     -17.311  11.303 -20.376  1.00  0.00    -0.030 C 
HETATM    9  C   UNL     1     -16.005  11.069 -20.604  1.00  0.00    -0.027 C 
BRANCH   9  10
HETATM   10  C   UNL     1     -14.872  11.987 -20.222  1.00  0.00     0.053 C 
BRANCH  10  11
HETATM   11  C   UNL     1     -13.532  11.382 -20.578  1.00  0.00    -0.027 C 
HETATM   12  C   UNL     1     -12.649  10.797 -19.743  1.00  0.00    -0.027 C 
BRANCH  12  13
HETATM   13  C   UNL     1     -12.803  10.590 -18.258  1.00  0.00     0.053 C 
BRANCH  13  14
HETATM   14  C   UNL     1     -13.674   9.386 -17.991  1.00  0.00    -0.027 C 
HETATM   15  C   UNL     1     -14.877   9.422 -17.382  1.00  0.00    -0.027 C 
BRANCH  15  16
HETATM   16  C   UNL     1     -15.531  10.673 -16.857  1.00  0.00     0.053 C 
BRANCH  16  17
HETATM   17  C   UNL     1     -15.073  10.989 -15.455  1.00  0.00    -0.027 C 
HETATM   18  C   UNL     1     -15.776  11.739 -14.587  1.00  0.00    -0.030 C 
BRANCH  18  19
HETATM   19  C   UNL     1     -17.108  12.379 -14.887  1.00  0.00     0.027 C 
BRANCH  19  20
HETATM   20  C   UNL     1     -18.201  11.711 -14.046  1.00  0.00     0.004 C 
BRANCH  20  21
HETATM   21  C   UNL     1     -19.574  11.845 -14.712  1.00  0.00    -0.000 C 
BRANCH  21  22
HETATM   22  C   UNL     1     -20.139  13.258 -14.520  1.00  0.00    -0.005 C 
HETATM   23  C   UNL     1     -20.374  13.561 -13.044  1.00  0.00     0.005 C 
ENDBRANCH  21  22
ENDBRANCH  20  21
ENDBRANCH  19  20
ENDBRANCH  18  19
ENDBRANCH  16  17
ENDBRANCH  15  16
ENDBRANCH  13  14
ENDBRANCH  12  13
ENDBRANCH  10  11
ENDBRANCH   9  10
ENDBRANCH   7   8
ENDBRANCH   6   7
ENDBRANCH   5   6
ENDBRANCH   3   5
ENDBRANCH   1   3
TORSDOF 15
ENDMDL
MODEL 13
REMARK VINA RESULT:      -4.2      4.945      8.819
REMARK  15 active torsions:
REMARK  status: ('A' for Active; 'I' for Inactive)
REMARK    1  A    between atoms: O_1  and  C_22 
REMARK    2  A    between atoms: C_3  and  C_4 
REMARK    3  A    between atoms: C_3  and  C_5 
REMARK    4  A    between atoms: C_4  and  C_6 
REMARK    5  A    between atoms: C_5  and  C_7 
REMARK    6  A    between atoms: C_9  and  C_10 
REMARK    7  A    between atoms: C_9  and  C_13 
REMARK    8  A    between atoms: C_10  and  C_14 
REMARK    9  A    between atoms: C_11  and  C_12 
REMARK   10  A    between atoms: C_12  and  C_16 
REMARK   11  A    between atoms: C_13  and  C_22 
REMARK   12  A    between atoms: C_15  and  C_17 
REMARK   13  A    between atoms: C_15  and  C_20 
REMARK   14  A    between atoms: C_18  and  C_19 
REMARK   15  A    between atoms: C_18  and  C_21 
ROOT
HETATM    1  O   UNL     1      34.904  10.128 -17.768  1.00  0.00    -0.776 OA
HETATM    2  H   UNL     1      34.729  10.607 -16.945  1.00  0.00     0.167 HD
ENDROOT
BRANCH   1   3
HETATM    3  C   UNL     1      34.000   9.270 -18.287  1.00  0.00     0.139 C 
HETATM    4  O   UNL     1      32.888   9.175 -17.787  1.00  0.00    -0.650 OA
BRANCH   3   5
HETATM    5  C   UNL     1      34.369   8.423 -19.473  1.00  0.00     0.110 C 
BRANCH   5   6
HETATM    6  C   UNL     1      34.226   9.182 -20.800  1.00  0.00     0.014 C 
BRANCH   6   7
HETATM    7  C   UNL     1      33.064   8.663 -21.656  1.00  0.00     0.027 C 
BRANCH   7   8
HETATM    8  C   UNL     1      33.595   7.762 -22.742  1.00  0.00    -0.030 C 
HETATM    9  C   UNL     1      32.840   7.017 -23.572  1.00  0.00    -0.027 C 
BRANCH   9  10
HETATM   10  C   UNL     1      31.333   6.971 -23.578  1.00  0.00     0.053 C 
BRANCH  10  11
HETATM   11  C   UNL     1      30.825   5.582 -23.259  1.00  0.00    -0.027 C 
HETATM   12  C   UNL     1      30.655   5.031 -22.040  1.00  0.00    -0.027 C 
BRANCH  12  13
HETATM   13  C   UNL     1      30.913   5.682 -20.705  1.00  0.00     0.053 C 
BRANCH  13  14
HETATM   14  C   UNL     1      32.284   5.297 -20.199  1.00  0.00    -0.027 C 
HETATM   15  C   UNL     1      32.665   5.320 -18.905  1.00  0.00    -0.027 C 
BRANCH  15  16
HETATM   16  C   UNL     1      31.783   5.751 -17.763  1.00  0.00     0.053 C 
BRANCH  16  17
HETATM   17  C   UNL     1      32.003   4.894 -16.541  1.00  0.00    -0.027 C 
HETATM   18  C   UNL     1      32.950   5.134 -15.618  1.00  0.00    -0.030 C 
BRANCH  18  19
HETATM   19  C   UNL     1      33.932   6.276 -15.670  1.00  0.00     0.027 C 
BRANCH  19  20
HETATM   20  C   UNL     1      33.415   7.439 -14.816  1.00  0.00     0.004 C 
BRANCH  20  21
HETATM   21  C   UNL     1      32.722   6.929 -13.548  1.00  0.00    -0.000 C 
BRANCH  21  22
HETATM   22  C   UNL     1      31.357   7.603 -13.363  1.00  0.00    -0.005 C 
HETATM   23  C   UNL     1      30.764   8.024 -14.705  1.00  0.00     0.005 C 
ENDBRANCH  21  22
ENDBRANCH  20  21
ENDBRANCH  19  20
ENDBRANCH  18  19
ENDBRANCH  16  17
ENDBRANCH  15  16
ENDBRANCH  13  14
ENDBRANCH  12  13
ENDBRANCH  10  11
ENDBRANCH   9  10
ENDBRANCH   7   8
ENDBRANCH   6   7
ENDBRANCH   5   6
ENDBRANCH   3   5
ENDBRANCH   1   3
TORSDOF 15
ENDMDL
MODEL 14
REMARK VINA RESULT:      -4.2      4.609      7.863
REMARK  15 active torsions:
REMARK  status: ('A' for Active; 'I' for Inactive)
REMARK    1  A    between atoms: O_1  and  C_22 
REMARK    2  A    between atoms: C_3  and  C_4 
REMARK    3  A    between atoms: C_3  and  C_5 
REMARK    4  A    between atoms: C_4  and  C_6 
REMARK    5  A    between atoms: C_5  and  C_7 
REMARK    6  A    between atoms: C_9  and  C_10 
REMARK    7  A    between atoms: C_9  and  C_13 
REMARK    8  A    between atoms: C_10  and  C_14 
REMARK    9  A    between atoms: C_11  and  C_12 
REMARK   10  A    between atoms: C_12  and  C_16 
REMARK   11  A    between atoms: C_13  and  C_22 
REMARK   12  A    between atoms: C_15  and  C_17 
REMARK   13  A    between atoms: C_15  and  C_20 
REMARK   14  A    between atoms: C_18  and  C_19 
REMARK   15  A    between atoms: C_18  and  C_21 
ROOT
HETATM    1  O   UNL     1      31.239  12.977 -16.707  1.00  0.00    -0.776 OA
HETATM    2  H   UNL     1      30.848  13.862 -16.730  1.00  0.00     0.167 HD
ENDROOT
BRANCH   1   3
HETATM    3  C   UNL     1      30.539  11.890 -17.094  1.00  0.00     0.139 C 
HETATM    4  O   UNL     1      29.665  11.435 -16.371  1.00  0.00    -0.650 OA
BRANCH   3   5
HETATM    5  C   UNL     1      30.846  11.233 -18.412  1.00  0.00     0.110 C 
BRANCH   5   6
HETATM    6  C   UNL     1      29.804  10.172 -18.793  1.00  0.00     0.014 C 
BRANCH   6   7
HETATM    7  C   UNL     1      30.439   8.897 -19.361  1.00  0.00     0.027 C 
BRANCH   7   8
HETATM    8  C   UNL     1      31.337   9.249 -20.520  1.00  0.00    -0.030 C 
HETATM    9  C   UNL     1      32.569   8.747 -20.728  1.00  0.00    -0.027 C 
BRANCH   9  10
HETATM   10  C   UNL     1      33.258   7.729 -19.855  1.00  0.00     0.053 C 
BRANCH  10  11
HETATM   11  C   UNL     1      32.907   6.319 -20.277  1.00  0.00    -0.027 C 
HETATM   12  C   UNL     1      32.516   5.299 -19.486  1.00  0.00    -0.027 C 
BRANCH  12  13
HETATM   13  C   UNL     1      32.317   5.334 -17.992  1.00  0.00     0.053 C 
BRANCH  13  14
HETATM   14  C   UNL     1      30.857   5.549 -17.670  1.00  0.00    -0.027 C 
HETATM   15  C   UNL     1      30.393   6.244 -16.611  1.00  0.00    -0.027 C 
BRANCH  15  16
HETATM   16  C   UNL     1      31.264   6.902 -15.573  1.00  0.00     0.053 C 
BRANCH  16  17
HETATM   17  C   UNL     1      31.510   8.354 -15.898  1.00  0.00    -0.027 C 
HETATM   18  C   UNL     1      32.698   8.845 -16.291  1.00  0.00    -0.030 C 
BRANCH  18  19
HETATM   19  C   UNL     1      33.955   8.027 -16.452  1.00  0.00     0.027 C 
BRANCH  19  20
HETATM   20  C   UNL     1      34.782   8.096 -15.164  1.00  0.00     0.004 C 
BRANCH  20  21
HETATM   21  C   UNL     1      34.439   9.348 -14.351  1.00  0.00    -0.000 C 
BRANCH  21  22
HETATM   22  C   UNL     1      34.287   9.009 -12.863  1.00  0.00    -0.005 C 
HETATM   23  C   UNL     1      33.512   7.709 -12.671  1.00  0.00     0.005 C 
ENDBRANCH  21  22
ENDBRANCH  20  21
ENDBRANCH  19  20
ENDBRANCH  18  19
ENDBRANCH  16  17
ENDBRANCH  15  16
ENDBRANCH  13  14
ENDBRANCH  12  13
ENDBRANCH  10  11
ENDBRANCH   9  10
ENDBRANCH   7   8
ENDBRANCH   6   7
ENDBRANCH   5   6
ENDBRANCH   3   5
ENDBRANCH   1   3
TORSDOF 15
ENDMDL
MODEL 15
REMARK VINA RESULT:      -4.2      4.293      7.210
REMARK  15 active torsions:
REMARK  status: ('A' for Active; 'I' for Inactive)
REMARK    1  A    between atoms: O_1  and  C_22 
REMARK    2  A    between atoms: C_3  and  C_4 
REMARK    3  A    between atoms: C_3  and  C_5 
REMARK    4  A    between atoms: C_4  and  C_6 
REMARK    5  A    between atoms: C_5  and  C_7 
REMARK    6  A    between atoms: C_9  and  C_10 
REMARK    7  A    between atoms: C_9  and  C_13 
REMARK    8  A    between atoms: C_10  and  C_14 
REMARK    9  A    between atoms: C_11  and  C_12 
REMARK   10  A    between atoms: C_12  and  C_16 
REMARK   11  A    between atoms: C_13  and  C_22 
REMARK   12  A    between atoms: C_15  and  C_17 
REMARK   13  A    between atoms: C_15  and  C_20 
REMARK   14  A    between atoms: C_18  and  C_19 
REMARK   15  A    between atoms: C_18  and  C_21 
ROOT
HETATM    1  O   UNL     1      29.986  12.482 -16.150  1.00  0.00    -0.776 OA
HETATM    2  H   UNL     1      29.999  13.131 -16.868  1.00  0.00     0.167 HD
ENDROOT
BRANCH   1   3
HETATM    3  C   UNL     1      28.893  12.314 -15.374  1.00  0.00     0.139 C 
HETATM    4  O   UNL     1      28.135  13.251 -15.173  1.00  0.00    -0.650 OA
BRANCH   3   5
HETATM    5  C   UNL     1      28.619  10.973 -14.750  1.00  0.00     0.110 C 
BRANCH   5   6
HETATM    6  C   UNL     1      29.597  10.648 -13.612  1.00  0.00     0.014 C 
BRANCH   6   7
HETATM    7  C   UNL     1      30.596   9.546 -13.988  1.00  0.00     0.027 C 
BRANCH   7   8
HETATM    8  C   UNL     1      31.998   9.998 -13.665  1.00  0.00    -0.030 C 
HETATM    9  C   UNL     1      32.669   9.699 -12.537  1.00  0.00    -0.027 C 
BRANCH   9  10
HETATM   10  C   UNL     1      32.150   8.841 -11.411  1.00  0.00     0.053 C 
BRANCH  10  11
HETATM   11  C   UNL     1      31.285   9.643 -10.465  1.00  0.00    -0.027 C 
HETATM   12  C   UNL     1      30.712   9.221  -9.319  1.00  0.00    -0.027 C 
BRANCH  12  13
HETATM   13  C   UNL     1      30.820   7.849  -8.703  1.00  0.00     0.053 C 
BRANCH  13  14
HETATM   14  C   UNL     1      32.154   7.695  -8.012  1.00  0.00    -0.027 C 
HETATM   15  C   UNL     1      32.953   6.613  -8.105  1.00  0.00    -0.027 C 
BRANCH  15  16
HETATM   16  C   UNL     1      32.627   5.377  -8.903  1.00  0.00     0.053 C 
BRANCH  16  17
HETATM   17  C   UNL     1      33.350   5.368 -10.227  1.00  0.00    -0.027 C 
HETATM   18  C   UNL     1      32.735   5.235 -11.415  1.00  0.00    -0.030 C 
BRANCH  18  19
HETATM   19  C   UNL     1      31.249   5.065 -11.600  1.00  0.00     0.027 C 
BRANCH  19  20
HETATM   20  C   UNL     1      30.806   5.769 -12.887  1.00  0.00     0.004 C 
BRANCH  20  21
HETATM   21  C   UNL     1      32.004   6.070 -13.795  1.00  0.00    -0.000 C 
BRANCH  21  22
HETATM   22  C   UNL     1      31.887   5.313 -15.123  1.00  0.00    -0.005 C 
HETATM   23  C   UNL     1      30.606   5.690 -15.861  1.00  0.00     0.005 C 
ENDBRANCH  21  22
ENDBRANCH  20  21
ENDBRANCH  19  20
ENDBRANCH  18  19
ENDBRANCH  16  17
ENDBRANCH  15  16
ENDBRANCH  13  14
ENDBRANCH  12  13
ENDBRANCH  10  11
ENDBRANCH   9  10
ENDBRANCH   7   8
ENDBRANCH   6   7
ENDBRANCH   5   6
ENDBRANCH   3   5
ENDBRANCH   1   3
TORSDOF 15
ENDMDL
MODEL 16
REMARK VINA RESULT:      -4.1     47.140     49.252
REMARK  15 active torsions:
REMARK  status: ('A' for Active; 'I' for Inactive)
REMARK    1  A    between atoms: O_1  and  C_22 
REMARK    2  A    between atoms: C_3  and  C_4 
REMARK    3  A    between atoms: C_3  and  C_5 
REMARK    4  A    between atoms: C_4  and  C_6 
REMARK    5  A    between atoms: C_5  and  C_7 
REMARK    6  A    between atoms: C_9  and  C_10 
REMARK    7  A    between atoms: C_9  and  C_13 
REMARK    8  A    between atoms: C_10  and  C_14 
REMARK    9  A    between atoms: C_11  and  C_12 
REMARK   10  A    between atoms: C_12  and  C_16 
REMARK   11  A    between atoms: C_13  and  C_22 
REMARK   12  A    between atoms: C_15  and  C_17 
REMARK   13  A    between atoms: C_15  and  C_20 
REMARK   14  A    between atoms: C_18  and  C_19 
REMARK   15  A    between atoms: C_18  and  C_21 
ROOT
HETATM    1  O   UNL     1     -12.442   9.041 -11.509  1.00  0.00    -0.776 OA
HETATM    2  H   UNL     1     -12.022   8.515 -10.814  1.00  0.00     0.167 HD
ENDROOT
BRANCH   1   3
HETATM    3  C   UNL     1     -12.888  10.293 -11.270  1.00  0.00     0.139 C 
HETATM    4  O   UNL     1     -12.576  11.207 -12.020  1.00  0.00    -0.650 OA
BRANCH   3   5
HETATM    5  C   UNL     1     -13.758  10.561 -10.074  1.00  0.00     0.110 C 
BRANCH   5   6
HETATM    6  C   UNL     1     -14.760  11.697 -10.324  1.00  0.00     0.014 C 
BRANCH   6   7
HETATM    7  C   UNL     1     -15.970  11.637  -9.382  1.00  0.00     0.027 C 
BRANCH   7   8
HETATM    8  C   UNL     1     -17.145  12.334 -10.019  1.00  0.00    -0.030 C 
HETATM    9  C   UNL     1     -18.370  12.450  -9.471  1.00  0.00    -0.027 C 
BRANCH   9  10
HETATM   10  C   UNL     1     -18.774  11.926  -8.116  1.00  0.00     0.053 C 
BRANCH  10  11
HETATM   11  C   UNL     1     -20.030  12.606  -7.618  1.00  0.00    -0.027 C 
HETATM   12  C   UNL     1     -20.229  13.182  -6.415  1.00  0.00    -0.027 C 
BRANCH  12  13
HETATM   13  C   UNL     1     -19.233  13.300  -5.289  1.00  0.00     0.053 C 
BRANCH  13  14
HETATM   14  C   UNL     1     -19.658  12.431  -4.130  1.00  0.00    -0.027 C 
HETATM   15  C   UNL     1     -19.019  11.315  -3.724  1.00  0.00    -0.027 C 
BRANCH  15  16
HETATM   16  C   UNL     1     -17.785  10.752  -4.380  1.00  0.00     0.053 C 
BRANCH  16  17
HETATM   17  C   UNL     1     -16.532  11.403  -3.850  1.00  0.00    -0.027 C 
HETATM   18  C   UNL     1     -15.426  11.611  -4.586  1.00  0.00    -0.030 C 
BRANCH  18  19
HETATM   19  C   UNL     1     -15.270  11.217  -6.034  1.00  0.00     0.027 C 
BRANCH  19  20
HETATM   20  C   UNL     1     -13.783  11.048  -6.363  1.00  0.00     0.004 C 
BRANCH  20  21
HETATM   21  C   UNL     1     -13.066  10.228  -5.286  1.00  0.00    -0.000 C 
BRANCH  21  22
HETATM   22  C   UNL     1     -13.521   8.764  -5.320  1.00  0.00    -0.005 C 
HETATM   23  C   UNL     1     -13.210   8.059  -4.002  1.00  0.00     0.005 C 
ENDBRANCH  21  22
ENDBRANCH  20  21
ENDBRANCH  19  20
ENDBRANCH  18  19
ENDBRANCH  16  17
ENDBRANCH  15  16
ENDBRANCH  13  14
ENDBRANCH  12  13
ENDBRANCH  10  11
ENDBRANCH   9  10
ENDBRANCH   7   8
ENDBRANCH   6   7
ENDBRANCH   5   6
ENDBRANCH   3   5
ENDBRANCH   1   3
TORSDOF 15
ENDMDL
MODEL 17
REMARK VINA RESULT:      -4.1      4.688      7.108
REMARK  15 active torsions:
REMARK  status: ('A' for Active; 'I' for Inactive)
REMARK    1  A    between atoms: O_1  and  C_22 
REMARK    2  A    between atoms: C_3  and  C_4 
REMARK    3  A    between atoms: C_3  and  C_5 
REMARK    4  A    between atoms: C_4  and  C_6 
REMARK    5  A    between atoms: C_5  and  C_7 
REMARK    6  A    between atoms: C_9  and  C_10 
REMARK    7  A    between atoms: C_9  and  C_13 
REMARK    8  A    between atoms: C_10  and  C_14 
REMARK    9  A    between atoms: C_11  and  C_12 
REMARK   10  A    between atoms: C_12  and  C_16 
REMARK   11  A    between atoms: C_13  and  C_22 
REMARK   12  A    between atoms: C_15  and  C_17 
REMARK   13  A    between atoms: C_15  and  C_20 
REMARK   14  A    between atoms: C_18  and  C_19 
REMARK   15  A    between atoms: C_18  and  C_21 
ROOT
HETATM    1  O   UNL     1      30.366  12.942 -16.417  1.00  0.00    -0.776 OA
HETATM    2  H   UNL     1      30.238  13.703 -17.001  1.00  0.00     0.167 HD
ENDROOT
BRANCH   1   3
HETATM    3  C   UNL     1      29.326  12.361 -15.782  1.00  0.00     0.139 C 
HETATM    4  O   UNL     1      28.232  12.906 -15.773  1.00  0.00    -0.650 OA
BRANCH   3   5
HETATM    5  C   UNL     1      29.521  11.047 -15.077  1.00  0.00     0.110 C 
BRANCH   5   6
HETATM    6  C   UNL     1      29.188  11.133 -13.580  1.00  0.00     0.014 C 
BRANCH   6   7
HETATM    7  C   UNL     1      30.071  12.142 -12.835  1.00  0.00     0.027 C 
BRANCH   7   8
HETATM    8  C   UNL     1      29.273  12.805 -11.741  1.00  0.00    -0.030 C 
HETATM    9  C   UNL     1      29.270  12.434 -10.447  1.00  0.00    -0.027 C 
BRANCH   9  10
HETATM   10  C   UNL     1      30.081  11.307  -9.859  1.00  0.00     0.053 C 
BRANCH  10  11
HETATM   11  C   UNL     1      29.304  10.009  -9.868  1.00  0.00    -0.027 C 
HETATM   12  C   UNL     1      29.779   8.770 -10.108  1.00  0.00    -0.027 C 
BRANCH  12  13
HETATM   13  C   UNL     1      31.206   8.387 -10.405  1.00  0.00     0.053 C 
BRANCH  13  14
HETATM   14  C   UNL     1      31.522   7.047  -9.785  1.00  0.00    -0.027 C 
HETATM   15  C   UNL     1      31.158   5.853 -10.296  1.00  0.00    -0.027 C 
BRANCH  15  16
HETATM   16  C   UNL     1      30.362   5.673 -11.563  1.00  0.00     0.053 C 
BRANCH  16  17
HETATM   17  C   UNL     1      31.248   5.292 -12.723  1.00  0.00    -0.027 C 
HETATM   18  C   UNL     1      31.495   6.094 -13.773  1.00  0.00    -0.030 C 
BRANCH  18  19
HETATM   19  C   UNL     1      30.921   7.477 -13.953  1.00  0.00     0.027 C 
BRANCH  19  20
HETATM   20  C   UNL     1      31.183   7.961 -15.382  1.00  0.00     0.004 C 
BRANCH  20  21
HETATM   21  C   UNL     1      31.779   6.844 -16.246  1.00  0.00    -0.000 C 
BRANCH  21  22
HETATM   22  C   UNL     1      30.882   6.550 -17.454  1.00  0.00    -0.005 C 
HETATM   23  C   UNL     1      30.837   7.738 -18.409  1.00  0.00     0.005 C 
ENDBRANCH  21  22
ENDBRANCH  20  21
ENDBRANCH  19  20
ENDBRANCH  18  19
ENDBRANCH  16  17
ENDBRANCH  15  16
ENDBRANCH  13  14
ENDBRANCH  12  13
ENDBRANCH  10  11
ENDBRANCH   9  10
ENDBRANCH   7   8
ENDBRANCH   6   7
ENDBRANCH   5   6
ENDBRANCH   3   5
ENDBRANCH   1   3
TORSDOF 15
ENDMDL
MODEL 18
REMARK VINA RESULT:      -4.1      4.116      5.335
REMARK  15 active torsions:
REMARK  status: ('A' for Active; 'I' for Inactive)
REMARK    1  A    between atoms: O_1  and  C_22 
REMARK    2  A    between atoms: C_3  and  C_4 
REMARK    3  A    between atoms: C_3  and  C_5 
REMARK    4  A    between atoms: C_4  and  C_6 
REMARK    5  A    between atoms: C_5  and  C_7 
REMARK    6  A    between atoms: C_9  and  C_10 
REMARK    7  A    between atoms: C_9  and  C_13 
REMARK    8  A    between atoms: C_10  and  C_14 
REMARK    9  A    between atoms: C_11  and  C_12 
REMARK   10  A    between atoms: C_12  and  C_16 
REMARK   11  A    between atoms: C_13  and  C_22 
REMARK   12  A    between atoms: C_15  and  C_17 
REMARK   13  A    between atoms: C_15  and  C_20 
REMARK   14  A    between atoms: C_18  and  C_19 
REMARK   15  A    between atoms: C_18  and  C_21 
ROOT
HETATM    1  O   UNL     1      33.873   6.820 -10.045  1.00  0.00    -0.776 OA
HETATM    2  H   UNL     1      34.419   7.501  -9.627  1.00  0.00     0.167 HD
ENDROOT
BRANCH   1   3
HETATM    3  C   UNL     1      32.872   6.211  -9.374  1.00  0.00     0.139 C 
HETATM    4  O   UNL     1      33.128   5.393  -8.502  1.00  0.00    -0.650 OA
BRANCH   3   5
HETATM    5  C   UNL     1      31.442   6.534  -9.710  1.00  0.00     0.110 C 
BRANCH   5   6
HETATM    6  C   UNL     1      30.666   5.304 -10.200  1.00  0.00     0.014 C 
BRANCH   6   7
HETATM    7  C   UNL     1      30.194   5.442 -11.654  1.00  0.00     0.027 C 
BRANCH   7   8
HETATM    8  C   UNL     1      30.871   6.626 -12.297  1.00  0.00    -0.030 C 
HETATM    9  C   UNL     1      31.795   6.556 -13.273  1.00  0.00    -0.027 C 
BRANCH   9  10
HETATM   10  C   UNL     1      32.298   5.285 -13.912  1.00  0.00     0.053 C 
BRANCH  10  11
HETATM   11  C   UNL     1      33.310   5.580 -14.997  1.00  0.00    -0.027 C 
HETATM   12  C   UNL     1      33.159   5.415 -16.327  1.00  0.00    -0.027 C 
BRANCH  12  13
HETATM   13  C   UNL     1      31.931   4.914 -17.045  1.00  0.00     0.053 C 
BRANCH  13  14
HETATM   14  C   UNL     1      31.204   6.069 -17.692  1.00  0.00    -0.027 C 
HETATM   15  C   UNL     1      31.126   6.288 -19.021  1.00  0.00    -0.027 C 
BRANCH  15  16
HETATM   16  C   UNL     1      31.771   5.418 -20.068  1.00  0.00     0.053 C 
BRANCH  16  17
HETATM   17  C   UNL     1      30.824   5.130 -21.206  1.00  0.00    -0.027 C 
HETATM   18  C   UNL     1      30.804   5.822 -22.359  1.00  0.00    -0.030 C 
BRANCH  18  19
HETATM   19  C   UNL     1      31.707   6.986 -22.679  1.00  0.00     0.027 C 
BRANCH  19  20
HETATM   20  C   UNL     1      31.889   7.094 -24.196  1.00  0.00     0.004 C 
BRANCH  20  21
HETATM   21  C   UNL     1      33.289   6.639 -24.621  1.00  0.00    -0.000 C 
BRANCH  21  22
HETATM   22  C   UNL     1      33.237   5.259 -25.287  1.00  0.00    -0.005 C 
HETATM   23  C   UNL     1      32.896   5.374 -26.769  1.00  0.00     0.005 C 
ENDBRANCH  21  22
ENDBRANCH  20  21
ENDBRANCH  19  20
ENDBRANCH  18  19
ENDBRANCH  16  17
ENDBRANCH  15  16
ENDBRANCH  13  14
ENDBRANCH  12  13
ENDBRANCH  10  11
ENDBRANCH   9  10
ENDBRANCH   7   8
ENDBRANCH   6   7
ENDBRANCH   5   6
ENDBRANCH   3   5
ENDBRANCH   1   3
TORSDOF 15
ENDMDL
MODEL 19
REMARK VINA RESULT:      -4.1      4.933      7.729
REMARK  15 active torsions:
REMARK  status: ('A' for Active; 'I' for Inactive)
REMARK    1  A    between atoms: O_1  and  C_22 
REMARK    2  A    between atoms: C_3  and  C_4 
REMARK    3  A    between atoms: C_3  and  C_5 
REMARK    4  A    between atoms: C_4  and  C_6 
REMARK    5  A    between atoms: C_5  and  C_7 
REMARK    6  A    between atoms: C_9  and  C_10 
REMARK    7  A    between atoms: C_9  and  C_13 
REMARK    8  A    between atoms: C_10  and  C_14 
REMARK    9  A    between atoms: C_11  and  C_12 
REMARK   10  A    between atoms: C_12  and  C_16 
REMARK   11  A    between atoms: C_13  and  C_22 
REMARK   12  A    between atoms: C_15  and  C_17 
REMARK   13  A    between atoms: C_15  and  C_20 
REMARK   14  A    between atoms: C_18  and  C_19 
REMARK   15  A    between atoms: C_18  and  C_21 
ROOT
HETATM    1  O   UNL     1      30.968  12.543 -17.227  1.00  0.00    -0.776 OA
HETATM    2  H   UNL     1      30.848  13.236 -17.891  1.00  0.00     0.167 HD
ENDROOT
BRANCH   1   3
HETATM    3  C   UNL     1      30.059  11.558 -17.067  1.00  0.00     0.139 C 
HETATM    4  O   UNL     1      28.866  11.803 -17.167  1.00  0.00    -0.650 OA
BRANCH   3   5
HETATM    5  C   UNL     1      30.519  10.160 -16.754  1.00  0.00     0.110 C 
BRANCH   5   6
HETATM    6  C   UNL     1      30.341   9.207 -17.945  1.00  0.00     0.014 C 
BRANCH   6   7
HETATM    7  C   UNL     1      30.300   9.943 -19.291  1.00  0.00     0.027 C 
BRANCH   7   8
HETATM    8  C   UNL     1      31.484   9.533 -20.130  1.00  0.00    -0.030 C 
HETATM    9  C   UNL     1      31.615   8.352 -20.763  1.00  0.00    -0.027 C 
BRANCH   9  10
HETATM   10  C   UNL     1      30.593   7.243 -20.766  1.00  0.00     0.053 C 
BRANCH  10  11
HETATM   11  C   UNL     1      31.257   5.885 -20.702  1.00  0.00    -0.027 C 
HETATM   12  C   UNL     1      31.985   5.375 -19.687  1.00  0.00    -0.027 C 
BRANCH  12  13
HETATM   13  C   UNL     1      32.291   6.037 -18.368  1.00  0.00     0.053 C 
BRANCH  13  14
HETATM   14  C   UNL     1      32.265   5.012 -17.258  1.00  0.00    -0.027 C 
HETATM   15  C   UNL     1      31.644   5.172 -16.072  1.00  0.00    -0.027 C 
BRANCH  15  16
HETATM   16  C   UNL     1      30.889   6.410 -15.663  1.00  0.00     0.053 C 
BRANCH  16  17
HETATM   17  C   UNL     1      31.026   6.678 -14.185  1.00  0.00    -0.027 C 
HETATM   18  C   UNL     1      31.893   7.560 -13.659  1.00  0.00    -0.030 C 
BRANCH  18  19
HETATM   19  C   UNL     1      32.859   8.397 -14.459  1.00  0.00     0.027 C 
BRANCH  19  20
HETATM   20  C   UNL     1      34.169   7.627 -14.654  1.00  0.00     0.004 C 
BRANCH  20  21
HETATM   21  C   UNL     1      34.800   7.940 -16.016  1.00  0.00    -0.000 C 
BRANCH  21  22
HETATM   22  C   UNL     1      33.865   8.811 -16.864  1.00  0.00    -0.005 C 
HETATM   23  C   UNL     1      34.513   9.183 -18.193  1.00  0.00     0.005 C 
ENDBRANCH  21  22
ENDBRANCH  20  21
ENDBRANCH  19  20
ENDBRANCH  18  19
ENDBRANCH  16  17
ENDBRANCH  15  16
ENDBRANCH  13  14
ENDBRANCH  12  13
ENDBRANCH  10  11
ENDBRANCH   9  10
ENDBRANCH   7   8
ENDBRANCH   6   7
ENDBRANCH   5   6
ENDBRANCH   3   5
ENDBRANCH   1   3
TORSDOF 15
ENDMDL
MODEL 20
REMARK VINA RESULT:      -4.1     38.273     40.381
REMARK  15 active torsions:
REMARK  status: ('A' for Active; 'I' for Inactive)
REMARK    1  A    between atoms: O_1  and  C_22 
REMARK    2  A    between atoms: C_3  and  C_4 
REMARK    3  A    between atoms: C_3  and  C_5 
REMARK    4  A    between atoms: C_4  and  C_6 
REMARK    5  A    between atoms: C_5  and  C_7 
REMARK    6  A    between atoms: C_9  and  C_10 
REMARK    7  A    between atoms: C_9  and  C_13 
REMARK    8  A    between atoms: C_10  and  C_14 
REMARK    9  A    between atoms: C_11  and  C_12 
REMARK   10  A    between atoms: C_12  and  C_16 
REMARK   11  A    between atoms: C_13  and  C_22 
REMARK   12  A    between atoms: C_15  and  C_17 
REMARK   13  A    between atoms: C_15  and  C_20 
REMARK   14  A    between atoms: C_18  and  C_19 
REMARK   15  A    between atoms: C_18  and  C_21 
ROOT
HETATM    1  O   UNL     1      -5.160  15.562  -9.049  1.00  0.00    -0.776 OA
HETATM    2  H   UNL     1      -4.607  16.243  -8.641  1.00  0.00     0.167 HD
ENDROOT
BRANCH   1   3
HETATM    3  C   UNL     1      -5.042  15.251 -10.358  1.00  0.00     0.139 C 
HETATM    4  O   UNL     1      -3.986  14.811 -10.789  1.00  0.00    -0.650 OA
BRANCH   3   5
HETATM    5  C   UNL     1      -6.208  15.459 -11.284  1.00  0.00     0.110 C 
BRANCH   5   6
HETATM    6  C   UNL     1      -5.778  15.534 -12.756  1.00  0.00     0.014 C 
BRANCH   6   7
HETATM    7  C   UNL     1      -5.123  16.875 -13.113  1.00  0.00     0.027 C 
BRANCH   7   8
HETATM    8  C   UNL     1      -5.952  18.008 -12.562  1.00  0.00    -0.030 C 
HETATM    9  C   UNL     1      -6.901  18.678 -13.243  1.00  0.00    -0.027 C 
BRANCH   9  10
HETATM   10  C   UNL     1      -7.319  18.399 -14.665  1.00  0.00     0.053 C 
BRANCH  10  11
HETATM   11  C   UNL     1      -8.307  17.255 -14.731  1.00  0.00    -0.027 C 
HETATM   12  C   UNL     1      -8.409  16.315 -15.693  1.00  0.00    -0.027 C 
BRANCH  12  13
HETATM   13  C   UNL     1      -7.546  16.174 -16.921  1.00  0.00     0.053 C 
BRANCH  13  14
HETATM   14  C   UNL     1      -6.148  15.760 -16.525  1.00  0.00    -0.027 C 
HETATM   15  C   UNL     1      -5.015  16.230 -17.085  1.00  0.00    -0.027 C 
BRANCH  15  16
HETATM   16  C   UNL     1      -4.969  17.233 -18.208  1.00  0.00     0.053 C 
BRANCH  16  17
HETATM   17  C   UNL     1      -4.772  18.636 -17.688  1.00  0.00    -0.027 C 
HETATM   18  C   UNL     1      -5.720  19.589 -17.726  1.00  0.00    -0.030 C 
BRANCH  18  19
HETATM   19  C   UNL     1      -7.103  19.405 -18.297  1.00  0.00     0.027 C 
BRANCH  19  20
HETATM   20  C   UNL     1      -7.140  19.929 -19.736  1.00  0.00     0.004 C 
BRANCH  20  21
HETATM   21  C   UNL     1      -8.276  20.939 -19.930  1.00  0.00    -0.000 C 
BRANCH  21  22
HETATM   22  C   UNL     1      -7.829  22.349 -19.526  1.00  0.00    -0.005 C 
HETATM   23  C   UNL     1      -8.555  22.819 -18.270  1.00  0.00     0.005 C 
ENDBRANCH  21  22
ENDBRANCH  20  21
ENDBRANCH  19  20
ENDBRANCH  18  19
ENDBRANCH  16  17
ENDBRANCH  15  16
ENDBRANCH  13  14
ENDBRANCH  12  13
ENDBRANCH  10  11
ENDBRANCH   9  10
ENDBRANCH   7   8
ENDBRANCH   6   7
ENDBRANCH   5   6
ENDBRANCH   3   5
ENDBRANCH   1   3
TORSDOF 15
ENDMDL
