MODEL 1
REMARK VINA RESULT:      -5.1      0.000      0.000
REMARK  15 active torsions:
REMARK  status: ('A' for Active; 'I' for Inactive)
REMARK    1  A    between atoms: O_1  and  C_22 
REMARK    2  A    between atoms: C_3  and  C_4 
REMARK    3  A    between atoms: C_3  and  C_5 
REMARK    4  A    between atoms: C_4  and  C_6 
REMARK    5  A    between atoms: C_5  and  C_7 
REMARK    6  A    between atoms: C_9  and  C_10 
REMARK    7  A    between atoms: C_9  and  C_13 
REMARK    8  A    between atoms: C_10  and  C_14 
REMARK    9  A    between atoms: C_11  and  C_12 
REMARK   10  A    between atoms: C_12  and  C_16 
REMARK   11  A    between atoms: C_13  and  C_22 
REMARK   12  A    between atoms: C_15  and  C_17 
REMARK   13  A    between atoms: C_15  and  C_20 
REMARK   14  A    between atoms: C_18  and  C_19 
REMARK   15  A    between atoms: C_18  and  C_21 
ROOT
HETATM    1  O   UNL     1      -4.703   0.406  -5.641  1.00  0.00    -0.776 OA
HETATM    2  H   UNL     1      -4.640   0.498  -4.680  1.00  0.00     0.167 HD
ENDROOT
BRANCH   1   3
HETATM    3  C   UNL     1      -5.806  -0.106  -6.227  1.00  0.00     0.139 C 
HETATM    4  O   UNL     1      -6.107  -1.278  -6.048  1.00  0.00    -0.650 OA
BRANCH   3   5
HETATM    5  C   UNL     1      -6.656   0.765  -7.111  1.00  0.00     0.110 C 
BRANCH   5   6
HETATM    6  C   UNL     1      -7.357   1.883  -6.327  1.00  0.00     0.014 C 
BRANCH   6   7
HETATM    7  C   UNL     1      -8.887   1.781  -6.391  1.00  0.00     0.027 C 
BRANCH   7   8
HETATM    8  C   UNL     1      -9.485   3.162  -6.481  1.00  0.00    -0.030 C 
HETATM    9  C   UNL     1      -9.957   3.732  -7.606  1.00  0.00    -0.027 C 
BRANCH   9  10
HETATM   10  C   UNL     1      -9.992   3.084  -8.967  1.00  0.00     0.053 C 
BRANCH  10  11
HETATM   11  C   UNL     1      -8.849   3.564  -9.833  1.00  0.00    -0.027 C 
HETATM   12  C   UNL     1      -8.613   3.255 -11.125  1.00  0.00    -0.027 C 
BRANCH  12  13
HETATM   13  C   UNL     1      -9.449   2.370 -12.014  1.00  0.00     0.053 C 
BRANCH  13  14
HETATM   14  C   UNL     1     -10.402   3.211 -12.831  1.00  0.00    -0.027 C 
HETATM   15  C   UNL     1     -10.364   3.338 -14.173  1.00  0.00    -0.027 C 
BRANCH  15  16
HETATM   16  C   UNL     1      -9.351   2.672 -15.066  1.00  0.00     0.053 C 
BRANCH  16  17
HETATM   17  C   UNL     1      -8.751   3.648 -16.047  1.00  0.00    -0.027 C 
HETATM   18  C   UNL     1      -9.167   3.785 -17.318  1.00  0.00    -0.030 C 
BRANCH  18  19
HETATM   19  C   UNL     1     -10.276   2.983 -17.951  1.00  0.00     0.027 C 
BRANCH  19  20
HETATM   20  C   UNL     1     -10.328   3.275 -19.455  1.00  0.00     0.004 C 
BRANCH  20  21
HETATM   21  C   UNL     1      -8.920   3.432 -20.039  1.00  0.00    -0.000 C 
BRANCH  21  22
HETATM   22  C   UNL     1      -8.976   3.597 -21.562  1.00  0.00    -0.005 C 
HETATM   23  C   UNL     1     -10.309   3.109 -22.121  1.00  0.00     0.005 C 
ENDBRANCH  21  22
ENDBRANCH  20  21
ENDBRANCH  19  20
ENDBRANCH  18  19
ENDBRANCH  16  17
ENDBRANCH  15  16
ENDBRANCH  13  14
ENDBRANCH  12  13
ENDBRANCH  10  11
ENDBRANCH   9  10
ENDBRANCH   7   8
ENDBRANCH   6   7
ENDBRANCH   5   6
ENDBRANCH   3   5
ENDBRANCH   1   3
TORSDOF 15
ENDMDL
MODEL 2
REMARK VINA RESULT:      -5.1     23.109     25.035
REMARK  15 active torsions:
REMARK  status: ('A' for Active; 'I' for Inactive)
REMARK    1  A    between atoms: O_1  and  C_22 
REMARK    2  A    between atoms: C_3  and  C_4 
REMARK    3  A    between atoms: C_3  and  C_5 
REMARK    4  A    between atoms: C_4  and  C_6 
REMARK    5  A    between atoms: C_5  and  C_7 
REMARK    6  A    between atoms: C_9  and  C_10 
REMARK    7  A    between atoms: C_9  and  C_13 
REMARK    8  A    between atoms: C_10  and  C_14 
REMARK    9  A    between atoms: C_11  and  C_12 
REMARK   10  A    between atoms: C_12  and  C_16 
REMARK   11  A    between atoms: C_13  and  C_22 
REMARK   12  A    between atoms: C_15  and  C_17 
REMARK   13  A    between atoms: C_15  and  C_20 
REMARK   14  A    between atoms: C_18  and  C_19 
REMARK   15  A    between atoms: C_18  and  C_21 
ROOT
HETATM    1  O   UNL     1       9.919 -10.881  -4.882  1.00  0.00    -0.776 OA
HETATM    2  H   UNL     1       9.679 -10.009  -5.226  1.00  0.00     0.167 HD
ENDROOT
BRANCH   1   3
HETATM    3  C   UNL     1       9.127 -11.956  -5.078  1.00  0.00     0.139 C 
HETATM    4  O   UNL     1       9.014 -12.801  -4.202  1.00  0.00    -0.650 OA
BRANCH   3   5
HETATM    5  C   UNL     1       8.393 -12.117  -6.381  1.00  0.00     0.110 C 
BRANCH   5   6
HETATM    6  C   UNL     1       7.259 -13.148  -6.289  1.00  0.00     0.014 C 
BRANCH   6   7
HETATM    7  C   UNL     1       7.534 -14.406  -7.123  1.00  0.00     0.027 C 
BRANCH   7   8
HETATM    8  C   UNL     1       7.895 -15.551  -6.212  1.00  0.00    -0.030 C 
HETATM    9  C   UNL     1       9.132 -16.060  -6.057  1.00  0.00    -0.027 C 
BRANCH   9  10
HETATM   10  C   UNL     1      10.376 -15.561  -6.747  1.00  0.00     0.053 C 
BRANCH  10  11
HETATM   11  C   UNL     1      10.968 -16.623  -7.647  1.00  0.00    -0.027 C 
HETATM   12  C   UNL     1      10.983 -16.639  -8.995  1.00  0.00    -0.027 C 
BRANCH  12  13
HETATM   13  C   UNL     1      10.429 -15.588  -9.922  1.00  0.00     0.053 C 
BRANCH  13  14
HETATM   14  C   UNL     1      11.479 -14.539 -10.201  1.00  0.00    -0.027 C 
HETATM   15  C   UNL     1      11.379 -13.236  -9.867  1.00  0.00    -0.027 C 
BRANCH  15  16
HETATM   16  C   UNL     1      10.191 -12.621  -9.176  1.00  0.00     0.053 C 
BRANCH  16  17
HETATM   17  C   UNL     1       9.554 -11.547 -10.022  1.00  0.00    -0.027 C 
HETATM   18  C   UNL     1       8.534 -11.767 -10.870  1.00  0.00    -0.030 C 
BRANCH  18  19
HETATM   19  C   UNL     1       7.888 -13.108 -11.109  1.00  0.00     0.027 C 
BRANCH  19  20
HETATM   20  C   UNL     1       8.174 -13.569 -12.542  1.00  0.00     0.004 C 
BRANCH  20  21
HETATM   21  C   UNL     1       8.955 -12.506 -13.321  1.00  0.00    -0.000 C 
BRANCH  21  22
HETATM   22  C   UNL     1      10.157 -13.128 -14.040  1.00  0.00    -0.005 C 
HETATM   23  C   UNL     1      10.458 -14.524 -13.504  1.00  0.00     0.005 C 
ENDBRANCH  21  22
ENDBRANCH  20  21
ENDBRANCH  19  20
ENDBRANCH  18  19
ENDBRANCH  16  17
ENDBRANCH  15  16
ENDBRANCH  13  14
ENDBRANCH  12  13
ENDBRANCH  10  11
ENDBRANCH   9  10
ENDBRANCH   7   8
ENDBRANCH   6   7
ENDBRANCH   5   6
ENDBRANCH   3   5
ENDBRANCH   1   3
TORSDOF 15
ENDMDL
MODEL 3
REMARK VINA RESULT:      -4.9     23.129     25.739
REMARK  15 active torsions:
REMARK  status: ('A' for Active; 'I' for Inactive)
REMARK    1  A    between atoms: O_1  and  C_22 
REMARK    2  A    between atoms: C_3  and  C_4 
REMARK    3  A    between atoms: C_3  and  C_5 
REMARK    4  A    between atoms: C_4  and  C_6 
REMARK    5  A    between atoms: C_5  and  C_7 
REMARK    6  A    between atoms: C_9  and  C_10 
REMARK    7  A    between atoms: C_9  and  C_13 
REMARK    8  A    between atoms: C_10  and  C_14 
REMARK    9  A    between atoms: C_11  and  C_12 
REMARK   10  A    between atoms: C_12  and  C_16 
REMARK   11  A    between atoms: C_13  and  C_22 
REMARK   12  A    between atoms: C_15  and  C_17 
REMARK   13  A    between atoms: C_15  and  C_20 
REMARK   14  A    between atoms: C_18  and  C_19 
REMARK   15  A    between atoms: C_18  and  C_21 
ROOT
HETATM    1  O   UNL     1       3.167 -17.458 -12.785  1.00  0.00    -0.776 OA
HETATM    2  H   UNL     1       2.854 -17.813 -13.629  1.00  0.00     0.167 HD
ENDROOT
BRANCH   1   3
HETATM    3  C   UNL     1       4.403 -17.735 -12.320  1.00  0.00     0.139 C 
HETATM    4  O   UNL     1       5.068 -18.620 -12.838  1.00  0.00    -0.650 OA
BRANCH   3   5
HETATM    5  C   UNL     1       4.955 -16.960 -11.154  1.00  0.00     0.110 C 
BRANCH   5   6
HETATM    6  C   UNL     1       6.483 -16.823 -11.215  1.00  0.00     0.014 C 
BRANCH   6   7
HETATM    7  C   UNL     1       6.937 -15.381 -11.476  1.00  0.00     0.027 C 
BRANCH   7   8
HETATM    8  C   UNL     1       7.692 -14.863 -10.277  1.00  0.00    -0.030 C 
HETATM    9  C   UNL     1       8.000 -13.571 -10.053  1.00  0.00    -0.027 C 
BRANCH   9  10
HETATM   10  C   UNL     1       7.625 -12.415 -10.946  1.00  0.00     0.053 C 
BRANCH  10  11
HETATM   11  C   UNL     1       8.838 -11.850 -11.651  1.00  0.00    -0.027 C 
HETATM   12  C   UNL     1       9.308 -12.183 -12.871  1.00  0.00    -0.027 C 
BRANCH  12  13
HETATM   13  C   UNL     1       8.716 -13.186 -13.828  1.00  0.00     0.053 C 
BRANCH  13  14
HETATM   14  C   UNL     1       9.343 -13.030 -15.193  1.00  0.00    -0.027 C 
HETATM   15  C   UNL     1      10.582 -13.444 -15.527  1.00  0.00    -0.027 C 
BRANCH  15  16
HETATM   16  C   UNL     1      11.543 -14.114 -14.580  1.00  0.00     0.053 C 
BRANCH  16  17
HETATM   17  C   UNL     1      11.573 -15.607 -14.789  1.00  0.00    -0.027 C 
HETATM   18  C   UNL     1      11.012 -16.494 -13.948  1.00  0.00    -0.030 C 
BRANCH  18  19
HETATM   19  C   UNL     1      10.286 -16.133 -12.676  1.00  0.00     0.027 C 
BRANCH  19  20
HETATM   20  C   UNL     1      11.045 -16.698 -11.472  1.00  0.00     0.004 C 
BRANCH  20  21
HETATM   21  C   UNL     1      11.156 -15.661 -10.349  1.00  0.00    -0.000 C 
BRANCH  21  22
HETATM   22  C   UNL     1      11.598 -14.302 -10.903  1.00  0.00    -0.005 C 
HETATM   23  C   UNL     1      12.345 -13.492  -9.847  1.00  0.00     0.005 C 
ENDBRANCH  21  22
ENDBRANCH  20  21
ENDBRANCH  19  20
ENDBRANCH  18  19
ENDBRANCH  16  17
ENDBRANCH  15  16
ENDBRANCH  13  14
ENDBRANCH  12  13
ENDBRANCH  10  11
ENDBRANCH   9  10
ENDBRANCH   7   8
ENDBRANCH   6   7
ENDBRANCH   5   6
ENDBRANCH   3   5
ENDBRANCH   1   3
TORSDOF 15
ENDMDL
MODEL 4
REMARK VINA RESULT:      -4.7     23.978     26.948
REMARK  15 active torsions:
REMARK  status: ('A' for Active; 'I' for Inactive)
REMARK    1  A    between atoms: O_1  and  C_22 
REMARK    2  A    between atoms: C_3  and  C_4 
REMARK    3  A    between atoms: C_3  and  C_5 
REMARK    4  A    between atoms: C_4  and  C_6 
REMARK    5  A    between atoms: C_5  and  C_7 
REMARK    6  A    between atoms: C_9  and  C_10 
REMARK    7  A    between atoms: C_9  and  C_13 
REMARK    8  A    between atoms: C_10  and  C_14 
REMARK    9  A    between atoms: C_11  and  C_12 
REMARK   10  A    between atoms: C_12  and  C_16 
REMARK   11  A    between atoms: C_13  and  C_22 
REMARK   12  A    between atoms: C_15  and  C_17 
REMARK   13  A    between atoms: C_15  and  C_20 
REMARK   14  A    between atoms: C_18  and  C_19 
REMARK   15  A    between atoms: C_18  and  C_21 
ROOT
HETATM    1  O   UNL     1      14.539 -20.551  -4.080  1.00  0.00    -0.776 OA
HETATM    2  H   UNL     1      15.346 -20.291  -4.546  1.00  0.00     0.167 HD
ENDROOT
BRANCH   1   3
HETATM    3  C   UNL     1      13.522 -19.682  -3.897  1.00  0.00     0.139 C 
HETATM    4  O   UNL     1      12.813 -19.769  -2.904  1.00  0.00    -0.650 OA
BRANCH   3   5
HETATM    5  C   UNL     1      13.256 -18.615  -4.923  1.00  0.00     0.110 C 
BRANCH   5   6
HETATM    6  C   UNL     1      11.885 -17.952  -4.734  1.00  0.00     0.014 C 
BRANCH   6   7
HETATM    7  C   UNL     1      11.743 -16.649  -5.531  1.00  0.00     0.027 C 
BRANCH   7   8
HETATM    8  C   UNL     1      10.283 -16.355  -5.768  1.00  0.00    -0.030 C 
HETATM    9  C   UNL     1       9.761 -15.132  -5.978  1.00  0.00    -0.027 C 
BRANCH   9  10
HETATM   10  C   UNL     1      10.545 -13.845  -6.037  1.00  0.00     0.053 C 
BRANCH  10  11
HETATM   11  C   UNL     1       9.631 -12.642  -5.963  1.00  0.00    -0.027 C 
HETATM   12  C   UNL     1       8.880 -12.121  -6.954  1.00  0.00    -0.027 C 
BRANCH  12  13
HETATM   13  C   UNL     1       8.760 -12.631  -8.367  1.00  0.00     0.053 C 
BRANCH  13  14
HETATM   14  C   UNL     1       9.382 -11.644  -9.327  1.00  0.00    -0.027 C 
HETATM   15  C   UNL     1       9.089 -11.553 -10.641  1.00  0.00    -0.027 C 
BRANCH  15  16
HETATM   16  C   UNL     1       8.104 -12.438 -11.359  1.00  0.00     0.053 C 
BRANCH  16  17
HETATM   17  C   UNL     1       8.805 -13.496 -12.174  1.00  0.00    -0.027 C 
HETATM   18  C   UNL     1       8.886 -14.789 -11.813  1.00  0.00    -0.030 C 
BRANCH  18  19
HETATM   19  C   UNL     1       8.306 -15.366 -10.547  1.00  0.00     0.027 C 
BRANCH  19  20
HETATM   20  C   UNL     1       9.406 -16.079  -9.755  1.00  0.00     0.004 C 
BRANCH  20  21
HETATM   21  C   UNL     1      10.795 -15.749 -10.313  1.00  0.00    -0.000 C 
BRANCH  21  22
HETATM   22  C   UNL     1      11.556 -14.815  -9.365  1.00  0.00    -0.005 C 
HETATM   23  C   UNL     1      12.330 -13.753 -10.142  1.00  0.00     0.005 C 
ENDBRANCH  21  22
ENDBRANCH  20  21
ENDBRANCH  19  20
ENDBRANCH  18  19
ENDBRANCH  16  17
ENDBRANCH  15  16
ENDBRANCH  13  14
ENDBRANCH  12  13
ENDBRANCH  10  11
ENDBRANCH   9  10
ENDBRANCH   7   8
ENDBRANCH   6   7
ENDBRANCH   5   6
ENDBRANCH   3   5
ENDBRANCH   1   3
TORSDOF 15
ENDMDL
MODEL 5
REMARK VINA RESULT:      -4.7     23.491     26.152
REMARK  15 active torsions:
REMARK  status: ('A' for Active; 'I' for Inactive)
REMARK    1  A    between atoms: O_1  and  C_22 
REMARK    2  A    between atoms: C_3  and  C_4 
REMARK    3  A    between atoms: C_3  and  C_5 
REMARK    4  A    between atoms: C_4  and  C_6 
REMARK    5  A    between atoms: C_5  and  C_7 
REMARK    6  A    between atoms: C_9  and  C_10 
REMARK    7  A    between atoms: C_9  and  C_13 
REMARK    8  A    between atoms: C_10  and  C_14 
REMARK    9  A    between atoms: C_11  and  C_12 
REMARK   10  A    between atoms: C_12  and  C_16 
REMARK   11  A    between atoms: C_13  and  C_22 
REMARK   12  A    between atoms: C_15  and  C_17 
REMARK   13  A    between atoms: C_15  and  C_20 
REMARK   14  A    between atoms: C_18  and  C_19 
REMARK   15  A    between atoms: C_18  and  C_21 
ROOT
HETATM    1  O   UNL     1       8.875 -11.385 -11.184  1.00  0.00    -0.776 OA
HETATM    2  H   UNL     1       9.770 -11.586 -10.876  1.00  0.00     0.167 HD
ENDROOT
BRANCH   1   3
HETATM    3  C   UNL     1       8.028 -12.363 -11.570  1.00  0.00     0.139 C 
HETATM    4  O   UNL     1       6.987 -12.550 -10.956  1.00  0.00    -0.650 OA
BRANCH   3   5
HETATM    5  C   UNL     1       8.375 -13.231 -12.748  1.00  0.00     0.110 C 
BRANCH   5   6
HETATM    6  C   UNL     1       9.752 -12.892 -13.337  1.00  0.00     0.014 C 
BRANCH   6   7
HETATM    7  C   UNL     1       9.669 -12.375 -14.779  1.00  0.00     0.027 C 
BRANCH   7   8
HETATM    8  C   UNL     1       8.239 -12.428 -15.255  1.00  0.00    -0.030 C 
HETATM    9  C   UNL     1       7.845 -12.785 -16.492  1.00  0.00    -0.027 C 
BRANCH   9  10
HETATM   10  C   UNL     1       8.760 -13.217 -17.610  1.00  0.00     0.053 C 
BRANCH  10  11
HETATM   11  C   UNL     1       9.299 -12.025 -18.370  1.00  0.00    -0.027 C 
HETATM   12  C   UNL     1       9.802 -12.009 -19.621  1.00  0.00    -0.027 C 
BRANCH  12  13
HETATM   13  C   UNL     1       9.927 -13.179 -20.564  1.00  0.00     0.053 C 
BRANCH  13  14
HETATM   14  C   UNL     1      11.336 -13.722 -20.531  1.00  0.00    -0.027 C 
HETATM   15  C   UNL     1      11.671 -14.982 -20.185  1.00  0.00    -0.027 C 
BRANCH  15  16
HETATM   16  C   UNL     1      10.687 -16.042 -19.762  1.00  0.00     0.053 C 
BRANCH  16  17
HETATM   17  C   UNL     1      11.353 -17.118 -18.941  1.00  0.00    -0.027 C 
HETATM   18  C   UNL     1      11.151 -17.289 -17.623  1.00  0.00    -0.030 C 
BRANCH  18  19
HETATM   19  C   UNL     1      10.247 -16.432 -16.773  1.00  0.00     0.027 C 
BRANCH  19  20
HETATM   20  C   UNL     1      11.093 -15.487 -15.913  1.00  0.00     0.004 C 
BRANCH  20  21
HETATM   21  C   UNL     1      11.748 -16.235 -14.747  1.00  0.00    -0.000 C 
BRANCH  21  22
HETATM   22  C   UNL     1      10.699 -17.001 -13.931  1.00  0.00    -0.005 C 
HETATM   23  C   UNL     1      10.580 -16.437 -12.519  1.00  0.00     0.005 C 
ENDBRANCH  21  22
ENDBRANCH  20  21
ENDBRANCH  19  20
ENDBRANCH  18  19
ENDBRANCH  16  17
ENDBRANCH  15  16
ENDBRANCH  13  14
ENDBRANCH  12  13
ENDBRANCH  10  11
ENDBRANCH   9  10
ENDBRANCH   7   8
ENDBRANCH   6   7
ENDBRANCH   5   6
ENDBRANCH   3   5
ENDBRANCH   1   3
TORSDOF 15
ENDMDL
MODEL 6
REMARK VINA RESULT:      -4.6     24.603     28.155
REMARK  15 active torsions:
REMARK  status: ('A' for Active; 'I' for Inactive)
REMARK    1  A    between atoms: O_1  and  C_22 
REMARK    2  A    between atoms: C_3  and  C_4 
REMARK    3  A    between atoms: C_3  and  C_5 
REMARK    4  A    between atoms: C_4  and  C_6 
REMARK    5  A    between atoms: C_5  and  C_7 
REMARK    6  A    between atoms: C_9  and  C_10 
REMARK    7  A    between atoms: C_9  and  C_13 
REMARK    8  A    between atoms: C_10  and  C_14 
REMARK    9  A    between atoms: C_11  and  C_12 
REMARK   10  A    between atoms: C_12  and  C_16 
REMARK   11  A    between atoms: C_13  and  C_22 
REMARK   12  A    between atoms: C_15  and  C_17 
REMARK   13  A    between atoms: C_15  and  C_20 
REMARK   14  A    between atoms: C_18  and  C_19 
REMARK   15  A    between atoms: C_18  and  C_21 
ROOT
HETATM    1  O   UNL     1      13.303 -13.166  -9.832  1.00  0.00    -0.776 OA
HETATM    2  H   UNL     1      13.566 -12.269 -10.082  1.00  0.00     0.167 HD
ENDROOT
BRANCH   1   3
HETATM    3  C   UNL     1      12.032 -13.595  -9.988  1.00  0.00     0.139 C 
HETATM    4  O   UNL     1      11.099 -12.827  -9.802  1.00  0.00    -0.650 OA
BRANCH   3   5
HETATM    5  C   UNL     1      11.768 -15.023 -10.379  1.00  0.00     0.110 C 
BRANCH   5   6
HETATM    6  C   UNL     1      10.318 -15.445 -10.102  1.00  0.00     0.014 C 
BRANCH   6   7
HETATM    7  C   UNL     1      10.209 -16.890  -9.597  1.00  0.00     0.027 C 
BRANCH   7   8
HETATM    8  C   UNL     1      11.588 -17.486  -9.461  1.00  0.00    -0.030 C 
HETATM    9  C   UNL     1      11.950 -18.402  -8.543  1.00  0.00    -0.027 C 
BRANCH   9  10
HETATM   10  C   UNL     1      11.039 -19.010  -7.508  1.00  0.00     0.053 C 
BRANCH  10  11
HETATM   11  C   UNL     1      11.830 -19.647  -6.387  1.00  0.00    -0.027 C 
HETATM   12  C   UNL     1      12.506 -19.021  -5.401  1.00  0.00    -0.027 C 
BRANCH  12  13
HETATM   13  C   UNL     1      12.611 -17.534  -5.176  1.00  0.00     0.053 C 
BRANCH  13  14
HETATM   14  C   UNL     1      11.308 -17.000  -4.630  1.00  0.00    -0.027 C 
HETATM   15  C   UNL     1      10.594 -15.995  -5.177  1.00  0.00    -0.027 C 
BRANCH  15  16
HETATM   16  C   UNL     1      10.996 -15.237  -6.414  1.00  0.00     0.053 C 
BRANCH  16  17
HETATM   17  C   UNL     1      10.773 -13.754  -6.251  1.00  0.00    -0.027 C 
HETATM   18  C   UNL     1       9.675 -13.109  -6.680  1.00  0.00    -0.030 C 
BRANCH  18  19
HETATM   19  C   UNL     1       8.518 -13.762  -7.394  1.00  0.00     0.027 C 
BRANCH  19  20
HETATM   20  C   UNL     1       7.320 -13.866  -6.444  1.00  0.00     0.004 C 
BRANCH  20  21
HETATM   21  C   UNL     1       6.786 -15.301  -6.380  1.00  0.00    -0.000 C 
BRANCH  21  22
HETATM   22  C   UNL     1       7.526 -16.204  -7.374  1.00  0.00    -0.005 C 
HETATM   23  C   UNL     1       7.684 -17.618  -6.822  1.00  0.00     0.005 C 
ENDBRANCH  21  22
ENDBRANCH  20  21
ENDBRANCH  19  20
ENDBRANCH  18  19
ENDBRANCH  16  17
ENDBRANCH  15  16
ENDBRANCH  13  14
ENDBRANCH  12  13
ENDBRANCH  10  11
ENDBRANCH   9  10
ENDBRANCH   7   8
ENDBRANCH   6   7
ENDBRANCH   5   6
ENDBRANCH   3   5
ENDBRANCH   1   3
TORSDOF 15
ENDMDL
MODEL 7
REMARK VINA RESULT:      -4.6     23.233     26.265
REMARK  15 active torsions:
REMARK  status: ('A' for Active; 'I' for Inactive)
REMARK    1  A    between atoms: O_1  and  C_22 
REMARK    2  A    between atoms: C_3  and  C_4 
REMARK    3  A    between atoms: C_3  and  C_5 
REMARK    4  A    between atoms: C_4  and  C_6 
REMARK    5  A    between atoms: C_5  and  C_7 
REMARK    6  A    between atoms: C_9  and  C_10 
REMARK    7  A    between atoms: C_9  and  C_13 
REMARK    8  A    between atoms: C_10  and  C_14 
REMARK    9  A    between atoms: C_11  and  C_12 
REMARK   10  A    between atoms: C_12  and  C_16 
REMARK   11  A    between atoms: C_13  and  C_22 
REMARK   12  A    between atoms: C_15  and  C_17 
REMARK   13  A    between atoms: C_15  and  C_20 
REMARK   14  A    between atoms: C_18  and  C_19 
REMARK   15  A    between atoms: C_18  and  C_21 
ROOT
HETATM    1  O   UNL     1       9.820 -10.652  -4.848  1.00  0.00    -0.776 OA
HETATM    2  H   UNL     1       9.447  -9.777  -5.025  1.00  0.00     0.167 HD
ENDROOT
BRANCH   1   3
HETATM    3  C   UNL     1       9.084 -11.774  -4.997  1.00  0.00     0.139 C 
HETATM    4  O   UNL     1       8.876 -12.502  -4.037  1.00  0.00    -0.650 OA
BRANCH   3   5
HETATM    5  C   UNL     1       8.531 -12.131  -6.349  1.00  0.00     0.110 C 
BRANCH   5   6
HETATM    6  C   UNL     1       7.392 -13.157  -6.261  1.00  0.00     0.014 C 
BRANCH   6   7
HETATM    7  C   UNL     1       7.784 -14.526  -6.831  1.00  0.00     0.027 C 
BRANCH   7   8
HETATM    8  C   UNL     1       8.026 -15.496  -5.702  1.00  0.00    -0.030 C 
HETATM    9  C   UNL     1       9.235 -15.845  -5.223  1.00  0.00    -0.027 C 
BRANCH   9  10
HETATM   10  C   UNL     1      10.557 -15.310  -5.714  1.00  0.00     0.053 C 
BRANCH  10  11
HETATM   11  C   UNL     1      11.715 -16.079  -5.116  1.00  0.00    -0.027 C 
HETATM   12  C   UNL     1      12.026 -17.377  -5.314  1.00  0.00    -0.027 C 
BRANCH  12  13
HETATM   13  C   UNL     1      11.300 -18.361  -6.195  1.00  0.00     0.053 C 
BRANCH  13  14
HETATM   14  C   UNL     1      11.876 -18.327  -7.591  1.00  0.00    -0.027 C 
HETATM   15  C   UNL     1      11.249 -17.823  -8.674  1.00  0.00    -0.027 C 
BRANCH  15  16
HETATM   16  C   UNL     1       9.865 -17.229  -8.660  1.00  0.00     0.053 C 
BRANCH  16  17
HETATM   17  C   UNL     1       9.563 -16.503  -9.947  1.00  0.00    -0.027 C 
HETATM   18  C   UNL     1       9.952 -15.242 -10.207  1.00  0.00    -0.030 C 
BRANCH  18  19
HETATM   19  C   UNL     1      10.732 -14.370  -9.255  1.00  0.00     0.027 C 
BRANCH  19  20
HETATM   20  C   UNL     1      10.215 -12.930  -9.336  1.00  0.00     0.004 C 
BRANCH  20  21
HETATM   21  C   UNL     1       8.837 -12.872 -10.005  1.00  0.00    -0.000 C 
BRANCH  21  22
HETATM   22  C   UNL     1       8.791 -11.766 -11.066  1.00  0.00    -0.005 C 
HETATM   23  C   UNL     1       9.001 -12.337 -12.466  1.00  0.00     0.005 C 
ENDBRANCH  21  22
ENDBRANCH  20  21
ENDBRANCH  19  20
ENDBRANCH  18  19
ENDBRANCH  16  17
ENDBRANCH  15  16
ENDBRANCH  13  14
ENDBRANCH  12  13
ENDBRANCH  10  11
ENDBRANCH   9  10
ENDBRANCH   7   8
ENDBRANCH   6   7
ENDBRANCH   5   6
ENDBRANCH   3   5
ENDBRANCH   1   3
TORSDOF 15
ENDMDL
MODEL 8
REMARK VINA RESULT:      -4.6     24.869     27.925
REMARK  15 active torsions:
REMARK  status: ('A' for Active; 'I' for Inactive)
REMARK    1  A    between atoms: O_1  and  C_22 
REMARK    2  A    between atoms: C_3  and  C_4 
REMARK    3  A    between atoms: C_3  and  C_5 
REMARK    4  A    between atoms: C_4  and  C_6 
REMARK    5  A    between atoms: C_5  and  C_7 
REMARK    6  A    between atoms: C_9  and  C_10 
REMARK    7  A    between atoms: C_9  and  C_13 
REMARK    8  A    between atoms: C_10  and  C_14 
REMARK    9  A    between atoms: C_11  and  C_12 
REMARK   10  A    between atoms: C_12  and  C_16 
REMARK   11  A    between atoms: C_13  and  C_22 
REMARK   12  A    between atoms: C_15  and  C_17 
REMARK   13  A    between atoms: C_15  and  C_20 
REMARK   14  A    between atoms: C_18  and  C_19 
REMARK   15  A    between atoms: C_18  and  C_21 
ROOT
HETATM    1  O   UNL     1      14.085 -20.328  -9.204  1.00  0.00    -0.776 OA
HETATM    2  H   UNL     1      14.838 -20.730  -9.658  1.00  0.00     0.167 HD
ENDROOT
BRANCH   1   3
HETATM    3  C   UNL     1      13.430 -19.270  -9.728  1.00  0.00     0.139 C 
HETATM    4  O   UNL     1      13.571 -18.986 -10.909  1.00  0.00    -0.650 OA
BRANCH   3   5
HETATM    5  C   UNL     1      12.536 -18.436  -8.853  1.00  0.00     0.110 C 
BRANCH   5   6
HETATM    6  C   UNL     1      11.405 -17.765  -9.645  1.00  0.00     0.014 C 
BRANCH   6   7
HETATM    7  C   UNL     1      11.378 -16.242  -9.462  1.00  0.00     0.027 C 
BRANCH   7   8
HETATM    8  C   UNL     1      11.179 -15.573 -10.799  1.00  0.00    -0.030 C 
HETATM    9  C   UNL     1      11.198 -14.244 -11.012  1.00  0.00    -0.027 C 
BRANCH   9  10
HETATM   10  C   UNL     1      11.445 -13.192  -9.960  1.00  0.00     0.053 C 
BRANCH  10  11
HETATM   11  C   UNL     1      10.314 -12.189  -9.912  1.00  0.00    -0.027 C 
HETATM   12  C   UNL     1       9.183 -12.263  -9.180  1.00  0.00    -0.027 C 
BRANCH  12  13
HETATM   13  C   UNL     1       8.792 -13.358  -8.222  1.00  0.00     0.053 C 
BRANCH  13  14
HETATM   14  C   UNL     1       8.987 -12.894  -6.798  1.00  0.00    -0.027 C 
HETATM   15  C   UNL     1      10.046 -13.204  -6.022  1.00  0.00    -0.027 C 
BRANCH  15  16
HETATM   16  C   UNL     1      11.193 -14.080  -6.453  1.00  0.00     0.053 C 
BRANCH  16  17
HETATM   17  C   UNL     1      11.600 -15.036  -5.359  1.00  0.00    -0.027 C 
HETATM   18  C   UNL     1      11.093 -16.273  -5.218  1.00  0.00    -0.030 C 
BRANCH  18  19
HETATM   19  C   UNL     1      10.043 -16.880  -6.114  1.00  0.00     0.027 C 
BRANCH  19  20
HETATM   20  C   UNL     1       8.650 -16.567  -5.560  1.00  0.00     0.004 C 
BRANCH  20  21
HETATM   21  C   UNL     1       7.586 -16.639  -6.661  1.00  0.00    -0.000 C 
BRANCH  21  22
HETATM   22  C   UNL     1       8.176 -17.216  -7.953  1.00  0.00    -0.005 C 
HETATM   23  C   UNL     1       7.541 -16.573  -9.183  1.00  0.00     0.005 C 
ENDBRANCH  21  22
ENDBRANCH  20  21
ENDBRANCH  19  20
ENDBRANCH  18  19
ENDBRANCH  16  17
ENDBRANCH  15  16
ENDBRANCH  13  14
ENDBRANCH  12  13
ENDBRANCH  10  11
ENDBRANCH   9  10
ENDBRANCH   7   8
ENDBRANCH   6   7
ENDBRANCH   5   6
ENDBRANCH   3   5
ENDBRANCH   1   3
TORSDOF 15
ENDMDL
MODEL 9
REMARK VINA RESULT:      -4.6     58.043     60.888
REMARK  15 active torsions:
REMARK  status: ('A' for Active; 'I' for Inactive)
REMARK    1  A    between atoms: O_1  and  C_22 
REMARK    2  A    between atoms: C_3  and  C_4 
REMARK    3  A    between atoms: C_3  and  C_5 
REMARK    4  A    between atoms: C_4  and  C_6 
REMARK    5  A    between atoms: C_5  and  C_7 
REMARK    6  A    between atoms: C_9  and  C_10 
REMARK    7  A    between atoms: C_9  and  C_13 
REMARK    8  A    between atoms: C_10  and  C_14 
REMARK    9  A    between atoms: C_11  and  C_12 
REMARK   10  A    between atoms: C_12  and  C_16 
REMARK   11  A    between atoms: C_13  and  C_22 
REMARK   12  A    between atoms: C_15  and  C_17 
REMARK   13  A    between atoms: C_15  and  C_20 
REMARK   14  A    between atoms: C_18  and  C_19 
REMARK   15  A    between atoms: C_18  and  C_21 
ROOT
HETATM    1  O   UNL     1      48.940 -16.499 -19.324  1.00  0.00    -0.776 OA
HETATM    2  H   UNL     1      48.021 -16.287 -19.111  1.00  0.00     0.167 HD
ENDROOT
BRANCH   1   3
HETATM    3  C   UNL     1      49.394 -17.770 -19.293  1.00  0.00     0.139 C 
HETATM    4  O   UNL     1      49.784 -18.307 -20.319  1.00  0.00    -0.650 OA
BRANCH   3   5
HETATM    5  C   UNL     1      49.406 -18.528 -17.993  1.00  0.00     0.110 C 
BRANCH   5   6
HETATM    6  C   UNL     1      48.396 -19.684 -17.982  1.00  0.00     0.014 C 
BRANCH   6   7
HETATM    7  C   UNL     1      47.130 -19.354 -17.181  1.00  0.00     0.027 C 
BRANCH   7   8
HETATM    8  C   UNL     1      46.166 -18.584 -18.049  1.00  0.00    -0.030 C 
HETATM    9  C   UNL     1      45.582 -17.418 -17.715  1.00  0.00    -0.027 C 
BRANCH   9  10
HETATM   10  C   UNL     1      45.807 -16.664 -16.428  1.00  0.00     0.053 C 
BRANCH  10  11
HETATM   11  C   UNL     1      47.105 -15.889 -16.466  1.00  0.00    -0.027 C 
HETATM   12  C   UNL     1      48.134 -15.969 -15.597  1.00  0.00    -0.027 C 
BRANCH  12  13
HETATM   13  C   UNL     1      48.236 -16.868 -14.392  1.00  0.00     0.053 C 
BRANCH  13  14
HETATM   14  C   UNL     1      49.376 -17.842 -14.569  1.00  0.00    -0.027 C 
HETATM   15  C   UNL     1      49.730 -18.789 -13.676  1.00  0.00    -0.027 C 
BRANCH  15  16
HETATM   16  C   UNL     1      49.049 -19.010 -12.351  1.00  0.00     0.053 C 
BRANCH  16  17
HETATM   17  C   UNL     1      49.901 -18.526 -11.204  1.00  0.00    -0.027 C 
HETATM   18  C   UNL     1      49.653 -17.402 -10.508  1.00  0.00    -0.030 C 
BRANCH  18  19
HETATM   19  C   UNL     1      48.506 -16.461 -10.774  1.00  0.00     0.027 C 
BRANCH  19  20
HETATM   20  C   UNL     1      47.391 -16.708  -9.753  1.00  0.00     0.004 C 
BRANCH  20  21
HETATM   21  C   UNL     1      46.267 -17.560 -10.352  1.00  0.00    -0.000 C 
BRANCH  21  22
HETATM   22  C   UNL     1      45.276 -16.688 -11.133  1.00  0.00    -0.005 C 
HETATM   23  C   UNL     1      45.235 -17.084 -12.605  1.00  0.00     0.005 C 
ENDBRANCH  21  22
ENDBRANCH  20  21
ENDBRANCH  19  20
ENDBRANCH  18  19
ENDBRANCH  16  17
ENDBRANCH  15  16
ENDBRANCH  13  14
ENDBRANCH  12  13
ENDBRANCH  10  11
ENDBRANCH   9  10
ENDBRANCH   7   8
ENDBRANCH   6   7
ENDBRANCH   5   6
ENDBRANCH   3   5
ENDBRANCH   1   3
TORSDOF 15
ENDMDL
MODEL 10
REMARK VINA RESULT:      -4.5     33.886     36.588
REMARK  15 active torsions:
REMARK  status: ('A' for Active; 'I' for Inactive)
REMARK    1  A    between atoms: O_1  and  C_22 
REMARK    2  A    between atoms: C_3  and  C_4 
REMARK    3  A    between atoms: C_3  and  C_5 
REMARK    4  A    between atoms: C_4  and  C_6 
REMARK    5  A    between atoms: C_5  and  C_7 
REMARK    6  A    between atoms: C_9  and  C_10 
REMARK    7  A    between atoms: C_9  and  C_13 
REMARK    8  A    between atoms: C_10  and  C_14 
REMARK    9  A    between atoms: C_11  and  C_12 
REMARK   10  A    between atoms: C_12  and  C_16 
REMARK   11  A    between atoms: C_13  and  C_22 
REMARK   12  A    between atoms: C_15  and  C_17 
REMARK   13  A    between atoms: C_15  and  C_20 
REMARK   14  A    between atoms: C_18  and  C_19 
REMARK   15  A    between atoms: C_18  and  C_21 
ROOT
HETATM    1  O   UNL     1      16.433 -26.003 -14.404  1.00  0.00    -0.776 OA
HETATM    2  H   UNL     1      16.968 -26.806 -14.339  1.00  0.00     0.167 HD
ENDROOT
BRANCH   1   3
HETATM    3  C   UNL     1      15.326 -25.956 -15.175  1.00  0.00     0.139 C 
HETATM    4  O   UNL     1      15.426 -25.987 -16.393  1.00  0.00    -0.650 OA
BRANCH   3   5
HETATM    5  C   UNL     1      13.971 -25.853 -14.531  1.00  0.00     0.110 C 
BRANCH   5   6
HETATM    6  C   UNL     1      14.047 -25.328 -13.090  1.00  0.00     0.014 C 
BRANCH   6   7
HETATM    7  C   UNL     1      13.859 -26.436 -12.046  1.00  0.00     0.027 C 
BRANCH   7   8
HETATM    8  C   UNL     1      12.665 -27.282 -12.413  1.00  0.00    -0.030 C 
HETATM    9  C   UNL     1      11.598 -27.503 -11.622  1.00  0.00    -0.027 C 
BRANCH   9  10
HETATM   10  C   UNL     1      11.397 -26.927 -10.243  1.00  0.00     0.053 C 
BRANCH  10  11
HETATM   11  C   UNL     1      11.627 -27.972  -9.174  1.00  0.00    -0.027 C 
HETATM   12  C   UNL     1      12.364 -27.848  -8.051  1.00  0.00    -0.027 C 
BRANCH  12  13
HETATM   13  C   UNL     1      13.117 -26.626  -7.590  1.00  0.00     0.053 C 
BRANCH  13  14
HETATM   14  C   UNL     1      14.412 -26.496  -8.356  1.00  0.00    -0.027 C 
HETATM   15  C   UNL     1      14.924 -25.338  -8.821  1.00  0.00    -0.027 C 
BRANCH  15  16
HETATM   16  C   UNL     1      14.270 -23.990  -8.659  1.00  0.00     0.053 C 
BRANCH  16  17
HETATM   17  C   UNL     1      13.297 -23.711  -9.777  1.00  0.00    -0.027 C 
HETATM   18  C   UNL     1      11.989 -23.463  -9.588  1.00  0.00    -0.030 C 
BRANCH  18  19
HETATM   19  C   UNL     1      11.303 -23.439  -8.246  1.00  0.00     0.027 C 
BRANCH  19  20
HETATM   20  C   UNL     1       9.989 -24.222  -8.326  1.00  0.00     0.004 C 
BRANCH  20  21
HETATM   21  C   UNL     1       9.373 -24.416  -6.936  1.00  0.00    -0.000 C 
BRANCH  21  22
HETATM   22  C   UNL     1       9.661 -25.824  -6.402  1.00  0.00    -0.005 C 
HETATM   23  C   UNL     1       8.768 -26.862  -7.076  1.00  0.00     0.005 C 
ENDBRANCH  21  22
ENDBRANCH  20  21
ENDBRANCH  19  20
ENDBRANCH  18  19
ENDBRANCH  16  17
ENDBRANCH  15  16
ENDBRANCH  13  14
ENDBRANCH  12  13
ENDBRANCH  10  11
ENDBRANCH   9  10
ENDBRANCH   7   8
ENDBRANCH   6   7
ENDBRANCH   5   6
ENDBRANCH   3   5
ENDBRANCH   1   3
TORSDOF 15
ENDMDL
MODEL 11
REMARK VINA RESULT:      -4.5     41.770     44.952
REMARK  15 active torsions:
REMARK  status: ('A' for Active; 'I' for Inactive)
REMARK    1  A    between atoms: O_1  and  C_22 
REMARK    2  A    between atoms: C_3  and  C_4 
REMARK    3  A    between atoms: C_3  and  C_5 
REMARK    4  A    between atoms: C_4  and  C_6 
REMARK    5  A    between atoms: C_5  and  C_7 
REMARK    6  A    between atoms: C_9  and  C_10 
REMARK    7  A    between atoms: C_9  and  C_13 
REMARK    8  A    between atoms: C_10  and  C_14 
REMARK    9  A    between atoms: C_11  and  C_12 
REMARK   10  A    between atoms: C_12  and  C_16 
REMARK   11  A    between atoms: C_13  and  C_22 
REMARK   12  A    between atoms: C_15  and  C_17 
REMARK   13  A    between atoms: C_15  and  C_20 
REMARK   14  A    between atoms: C_18  and  C_19 
REMARK   15  A    between atoms: C_18  and  C_21 
ROOT
HETATM    1  O   UNL     1      40.732  -9.792 -13.992  1.00  0.00    -0.776 OA
HETATM    2  H   UNL     1      41.215 -10.077 -14.780  1.00  0.00     0.167 HD
ENDROOT
BRANCH   1   3
HETATM    3  C   UNL     1      40.331 -10.678 -13.055  1.00  0.00     0.139 C 
HETATM    4  O   UNL     1      40.691 -10.546 -11.894  1.00  0.00    -0.650 OA
BRANCH   3   5
HETATM    5  C   UNL     1      39.451 -11.833 -13.445  1.00  0.00     0.110 C 
BRANCH   5   6
HETATM    6  C   UNL     1      38.190 -11.927 -12.574  1.00  0.00     0.014 C 
BRANCH   6   7
HETATM    7  C   UNL     1      37.239 -10.741 -12.782  1.00  0.00     0.027 C 
BRANCH   7   8
HETATM    8  C   UNL     1      36.409 -10.533 -11.540  1.00  0.00    -0.030 C 
HETATM    9  C   UNL     1      35.314  -9.754 -11.460  1.00  0.00    -0.027 C 
BRANCH   9  10
HETATM   10  C   UNL     1      34.710  -8.973 -12.600  1.00  0.00     0.053 C 
BRANCH  10  11
HETATM   11  C   UNL     1      33.391  -8.350 -12.200  1.00  0.00    -0.027 C 
HETATM   12  C   UNL     1      32.206  -8.973 -12.038  1.00  0.00    -0.027 C 
BRANCH  12  13
HETATM   13  C   UNL     1      31.924 -10.445 -12.198  1.00  0.00     0.053 C 
BRANCH  13  14
HETATM   14  C   UNL     1      31.005 -10.919 -11.097  1.00  0.00    -0.027 C 
HETATM   15  C   UNL     1      29.658 -10.936 -11.168  1.00  0.00    -0.027 C 
BRANCH  15  16
HETATM   16  C   UNL     1      28.860 -10.466 -12.356  1.00  0.00     0.053 C 
BRANCH  16  17
HETATM   17  C   UNL     1      28.541 -11.605 -13.292  1.00  0.00    -0.027 C 
HETATM   18  C   UNL     1      28.803 -11.588 -14.610  1.00  0.00    -0.030 C 
BRANCH  18  19
HETATM   19  C   UNL     1      29.438 -10.435 -15.346  1.00  0.00     0.027 C 
BRANCH  19  20
HETATM   20  C   UNL     1      30.894 -10.777 -15.679  1.00  0.00     0.004 C 
BRANCH  20  21
HETATM   21  C   UNL     1      31.578  -9.625 -16.423  1.00  0.00    -0.000 C 
BRANCH  21  22
HETATM   22  C   UNL     1      33.003  -9.406 -15.900  1.00  0.00    -0.005 C 
HETATM   23  C   UNL     1      33.677 -10.733 -15.565  1.00  0.00     0.005 C 
ENDBRANCH  21  22
ENDBRANCH  20  21
ENDBRANCH  19  20
ENDBRANCH  18  19
ENDBRANCH  16  17
ENDBRANCH  15  16
ENDBRANCH  13  14
ENDBRANCH  12  13
ENDBRANCH  10  11
ENDBRANCH   9  10
ENDBRANCH   7   8
ENDBRANCH   6   7
ENDBRANCH   5   6
ENDBRANCH   3   5
ENDBRANCH   1   3
TORSDOF 15
ENDMDL
MODEL 12
REMARK VINA RESULT:      -4.5     58.065     60.835
REMARK  15 active torsions:
REMARK  status: ('A' for Active; 'I' for Inactive)
REMARK    1  A    between atoms: O_1  and  C_22 
REMARK    2  A    between atoms: C_3  and  C_4 
REMARK    3  A    between atoms: C_3  and  C_5 
REMARK    4  A    between atoms: C_4  and  C_6 
REMARK    5  A    between atoms: C_5  and  C_7 
REMARK    6  A    between atoms: C_9  and  C_10 
REMARK    7  A    between atoms: C_9  and  C_13 
REMARK    8  A    between atoms: C_10  and  C_14 
REMARK    9  A    between atoms: C_11  and  C_12 
REMARK   10  A    between atoms: C_12  and  C_16 
REMARK   11  A    between atoms: C_13  and  C_22 
REMARK   12  A    between atoms: C_15  and  C_17 
REMARK   13  A    between atoms: C_15  and  C_20 
REMARK   14  A    between atoms: C_18  and  C_19 
REMARK   15  A    between atoms: C_18  and  C_21 
ROOT
HETATM    1  O   UNL     1      52.708 -19.630 -15.505  1.00  0.00    -0.776 OA
HETATM    2  H   UNL     1      53.176 -19.161 -14.800  1.00  0.00     0.167 HD
ENDROOT
BRANCH   1   3
HETATM    3  C   UNL     1      51.405 -19.962 -15.385  1.00  0.00     0.139 C 
HETATM    4  O   UNL     1      51.061 -20.813 -14.577  1.00  0.00    -0.650 OA
BRANCH   3   5
HETATM    5  C   UNL     1      50.379 -19.289 -16.255  1.00  0.00     0.110 C 
BRANCH   5   6
HETATM    6  C   UNL     1      49.924 -17.939 -15.683  1.00  0.00     0.014 C 
BRANCH   6   7
HETATM    7  C   UNL     1      48.534 -18.009 -15.038  1.00  0.00     0.027 C 
BRANCH   7   8
HETATM    8  C   UNL     1      47.930 -16.628 -14.980  1.00  0.00    -0.030 C 
HETATM    9  C   UNL     1      47.416 -15.961 -16.031  1.00  0.00    -0.027 C 
BRANCH   9  10
HETATM   10  C   UNL     1      47.331 -16.485 -17.442  1.00  0.00     0.053 C 
BRANCH  10  11
HETATM   11  C   UNL     1      46.031 -17.222 -17.676  1.00  0.00    -0.027 C 
HETATM   12  C   UNL     1      45.862 -18.545 -17.876  1.00  0.00    -0.027 C 
BRANCH  12  13
HETATM   13  C   UNL     1      46.935 -19.604 -17.893  1.00  0.00     0.053 C 
BRANCH  13  14
HETATM   14  C   UNL     1      47.228 -20.020 -19.315  1.00  0.00    -0.027 C 
HETATM   15  C   UNL     1      48.272 -19.583 -20.049  1.00  0.00    -0.027 C 
BRANCH  15  16
HETATM   16  C   UNL     1      49.301 -18.595 -19.566  1.00  0.00     0.053 C 
BRANCH  16  17
HETATM   17  C   UNL     1      49.864 -17.782 -20.705  1.00  0.00    -0.027 C 
HETATM   18  C   UNL     1      49.203 -16.777 -21.306  1.00  0.00    -0.030 C 
BRANCH  18  19
HETATM   19  C   UNL     1      47.811 -16.324 -20.945  1.00  0.00     0.027 C 
BRANCH  19  20
HETATM   20  C   UNL     1      46.827 -16.769 -22.032  1.00  0.00     0.004 C 
BRANCH  20  21
HETATM   21  C   UNL     1      45.547 -17.347 -21.419  1.00  0.00    -0.000 C 
BRANCH  21  22
HETATM   22  C   UNL     1      44.538 -16.234 -21.111  1.00  0.00    -0.005 C 
HETATM   23  C   UNL     1      43.391 -16.753 -20.249  1.00  0.00     0.005 C 
ENDBRANCH  21  22
ENDBRANCH  20  21
ENDBRANCH  19  20
ENDBRANCH  18  19
ENDBRANCH  16  17
ENDBRANCH  15  16
ENDBRANCH  13  14
ENDBRANCH  12  13
ENDBRANCH  10  11
ENDBRANCH   9  10
ENDBRANCH   7   8
ENDBRANCH   6   7
ENDBRANCH   5   6
ENDBRANCH   3   5
ENDBRANCH   1   3
TORSDOF 15
ENDMDL
MODEL 13
REMARK VINA RESULT:      -4.5     23.567     25.001
REMARK  15 active torsions:
REMARK  status: ('A' for Active; 'I' for Inactive)
REMARK    1  A    between atoms: O_1  and  C_22 
REMARK    2  A    between atoms: C_3  and  C_4 
REMARK    3  A    between atoms: C_3  and  C_5 
REMARK    4  A    between atoms: C_4  and  C_6 
REMARK    5  A    between atoms: C_5  and  C_7 
REMARK    6  A    between atoms: C_9  and  C_10 
REMARK    7  A    between atoms: C_9  and  C_13 
REMARK    8  A    between atoms: C_10  and  C_14 
REMARK    9  A    between atoms: C_11  and  C_12 
REMARK   10  A    between atoms: C_12  and  C_16 
REMARK   11  A    between atoms: C_13  and  C_22 
REMARK   12  A    between atoms: C_15  and  C_17 
REMARK   13  A    between atoms: C_15  and  C_20 
REMARK   14  A    between atoms: C_18  and  C_19 
REMARK   15  A    between atoms: C_18  and  C_21 
ROOT
HETATM    1  O   UNL     1       4.881 -16.734 -15.892  1.00  0.00    -0.776 OA
HETATM    2  H   UNL     1       4.391 -15.900 -15.916  1.00  0.00     0.167 HD
ENDROOT
BRANCH   1   3
HETATM    3  C   UNL     1       4.895 -17.510 -14.787  1.00  0.00     0.139 C 
HETATM    4  O   UNL     1       3.864 -17.702 -14.159  1.00  0.00    -0.650 OA
BRANCH   3   5
HETATM    5  C   UNL     1       6.186 -18.127 -14.324  1.00  0.00     0.110 C 
BRANCH   5   6
HETATM    6  C   UNL     1       7.392 -17.206 -14.560  1.00  0.00     0.014 C 
BRANCH   6   7
HETATM    7  C   UNL     1       7.410 -16.001 -13.610  1.00  0.00     0.027 C 
BRANCH   7   8
HETATM    8  C   UNL     1       8.515 -16.169 -12.598  1.00  0.00    -0.030 C 
HETATM    9  C   UNL     1       9.702 -15.534 -12.631  1.00  0.00    -0.027 C 
BRANCH   9  10
HETATM   10  C   UNL     1      10.126 -14.527 -13.670  1.00  0.00     0.053 C 
BRANCH  10  11
HETATM   11  C   UNL     1       9.508 -13.171 -13.404  1.00  0.00    -0.027 C 
HETATM   12  C   UNL     1       9.117 -12.256 -14.313  1.00  0.00    -0.027 C 
BRANCH  12  13
HETATM   13  C   UNL     1       9.187 -12.380 -15.814  1.00  0.00     0.053 C 
BRANCH  13  14
HETATM   14  C   UNL     1       7.868 -12.882 -16.353  1.00  0.00    -0.027 C 
HETATM   15  C   UNL     1       7.670 -14.096 -16.907  1.00  0.00    -0.027 C 
BRANCH  15  16
HETATM   16  C   UNL     1       8.744 -15.136 -17.088  1.00  0.00     0.053 C 
BRANCH  16  17
HETATM   17  C   UNL     1       8.954 -15.466 -18.545  1.00  0.00    -0.027 C 
HETATM   18  C   UNL     1       9.940 -14.946 -19.297  1.00  0.00    -0.030 C 
BRANCH  18  19
HETATM   19  C   UNL     1      10.966 -13.957 -18.805  1.00  0.00     0.027 C 
BRANCH  19  20
HETATM   20  C   UNL     1      10.957 -12.716 -19.703  1.00  0.00     0.004 C 
BRANCH  20  21
HETATM   21  C   UNL     1       9.701 -11.870 -19.469  1.00  0.00    -0.000 C 
BRANCH  21  22
HETATM   22  C   UNL     1       8.936 -11.653 -20.780  1.00  0.00    -0.005 C 
HETATM   23  C   UNL     1       7.686 -12.525 -20.839  1.00  0.00     0.005 C 
ENDBRANCH  21  22
ENDBRANCH  20  21
ENDBRANCH  19  20
ENDBRANCH  18  19
ENDBRANCH  16  17
ENDBRANCH  15  16
ENDBRANCH  13  14
ENDBRANCH  12  13
ENDBRANCH  10  11
ENDBRANCH   9  10
ENDBRANCH   7   8
ENDBRANCH   6   7
ENDBRANCH   5   6
ENDBRANCH   3   5
ENDBRANCH   1   3
TORSDOF 15
ENDMDL
MODEL 14
REMARK VINA RESULT:      -4.5     24.482     26.365
REMARK  15 active torsions:
REMARK  status: ('A' for Active; 'I' for Inactive)
REMARK    1  A    between atoms: O_1  and  C_22 
REMARK    2  A    between atoms: C_3  and  C_4 
REMARK    3  A    between atoms: C_3  and  C_5 
REMARK    4  A    between atoms: C_4  and  C_6 
REMARK    5  A    between atoms: C_5  and  C_7 
REMARK    6  A    between atoms: C_9  and  C_10 
REMARK    7  A    between atoms: C_9  and  C_13 
REMARK    8  A    between atoms: C_10  and  C_14 
REMARK    9  A    between atoms: C_11  and  C_12 
REMARK   10  A    between atoms: C_12  and  C_16 
REMARK   11  A    between atoms: C_13  and  C_22 
REMARK   12  A    between atoms: C_15  and  C_17 
REMARK   13  A    between atoms: C_15  and  C_20 
REMARK   14  A    between atoms: C_18  and  C_19 
REMARK   15  A    between atoms: C_18  and  C_21 
ROOT
HETATM    1  O   UNL     1       9.162 -11.026 -15.453  1.00  0.00    -0.776 OA
HETATM    2  H   UNL     1       9.524 -10.890 -14.566  1.00  0.00     0.167 HD
ENDROOT
BRANCH   1   3
HETATM    3  C   UNL     1       8.448 -12.130 -15.760  1.00  0.00     0.139 C 
HETATM    4  O   UNL     1       7.229 -12.071 -15.831  1.00  0.00    -0.650 OA
BRANCH   3   5
HETATM    5  C   UNL     1       9.157 -13.434 -16.002  1.00  0.00     0.110 C 
BRANCH   5   6
HETATM    6  C   UNL     1       8.268 -14.456 -16.725  1.00  0.00     0.014 C 
BRANCH   6   7
HETATM    7  C   UNL     1       7.844 -15.619 -15.818  1.00  0.00     0.027 C 
BRANCH   7   8
HETATM    8  C   UNL     1       8.779 -15.709 -14.638  1.00  0.00    -0.030 C 
HETATM    9  C   UNL     1       9.825 -16.550 -14.538  1.00  0.00    -0.027 C 
BRANCH   9  10
HETATM   10  C   UNL     1      10.262 -17.531 -15.597  1.00  0.00     0.053 C 
BRANCH  10  11
HETATM   11  C   UNL     1      11.119 -16.860 -16.646  1.00  0.00    -0.027 C 
HETATM   12  C   UNL     1      11.011 -16.969 -17.987  1.00  0.00    -0.027 C 
BRANCH  12  13
HETATM   13  C   UNL     1       9.992 -17.775 -18.752  1.00  0.00     0.053 C 
BRANCH  13  14
HETATM   14  C   UNL     1       8.971 -16.855 -19.378  1.00  0.00    -0.027 C 
HETATM   15  C   UNL     1       9.125 -16.213 -20.554  1.00  0.00    -0.027 C 
BRANCH  15  16
HETATM   16  C   UNL     1      10.353 -16.304 -21.422  1.00  0.00     0.053 C 
BRANCH  16  17
HETATM   17  C   UNL     1      10.626 -15.002 -22.132  1.00  0.00    -0.027 C 
HETATM   18  C   UNL     1      11.332 -13.990 -21.599  1.00  0.00    -0.030 C 
BRANCH  18  19
HETATM   19  C   UNL     1      11.942 -14.000 -20.221  1.00  0.00     0.027 C 
BRANCH  19  20
HETATM   20  C   UNL     1      10.960 -13.385 -19.219  1.00  0.00     0.004 C 
BRANCH  20  21
HETATM   21  C   UNL     1      10.238 -12.174 -19.821  1.00  0.00    -0.000 C 
BRANCH  21  22
HETATM   22  C   UNL     1       8.734 -12.235 -19.531  1.00  0.00    -0.005 C 
HETATM   23  C   UNL     1       7.943 -12.568 -20.792  1.00  0.00     0.005 C 
ENDBRANCH  21  22
ENDBRANCH  20  21
ENDBRANCH  19  20
ENDBRANCH  18  19
ENDBRANCH  16  17
ENDBRANCH  15  16
ENDBRANCH  13  14
ENDBRANCH  12  13
ENDBRANCH  10  11
ENDBRANCH   9  10
ENDBRANCH   7   8
ENDBRANCH   6   7
ENDBRANCH   5   6
ENDBRANCH   3   5
ENDBRANCH   1   3
TORSDOF 15
ENDMDL
MODEL 15
REMARK VINA RESULT:      -4.5     23.723     25.564
REMARK  15 active torsions:
REMARK  status: ('A' for Active; 'I' for Inactive)
REMARK    1  A    between atoms: O_1  and  C_22 
REMARK    2  A    between atoms: C_3  and  C_4 
REMARK    3  A    between atoms: C_3  and  C_5 
REMARK    4  A    between atoms: C_4  and  C_6 
REMARK    5  A    between atoms: C_5  and  C_7 
REMARK    6  A    between atoms: C_9  and  C_10 
REMARK    7  A    between atoms: C_9  and  C_13 
REMARK    8  A    between atoms: C_10  and  C_14 
REMARK    9  A    between atoms: C_11  and  C_12 
REMARK   10  A    between atoms: C_12  and  C_16 
REMARK   11  A    between atoms: C_13  and  C_22 
REMARK   12  A    between atoms: C_15  and  C_17 
REMARK   13  A    between atoms: C_15  and  C_20 
REMARK   14  A    between atoms: C_18  and  C_19 
REMARK   15  A    between atoms: C_18  and  C_21 
ROOT
HETATM    1  O   UNL     1       5.758 -17.941  -5.461  1.00  0.00    -0.776 OA
HETATM    2  H   UNL     1       4.808 -17.807  -5.343  1.00  0.00     0.167 HD
ENDROOT
BRANCH   1   3
HETATM    3  C   UNL     1       6.650 -16.980  -5.140  1.00  0.00     0.139 C 
HETATM    4  O   UNL     1       6.773 -16.623  -3.977  1.00  0.00    -0.650 OA
BRANCH   3   5
HETATM    5  C   UNL     1       7.482 -16.342  -6.218  1.00  0.00     0.110 C 
BRANCH   5   6
HETATM    6  C   UNL     1       6.965 -14.950  -6.608  1.00  0.00     0.014 C 
BRANCH   6   7
HETATM    7  C   UNL     1       7.451 -13.850  -5.656  1.00  0.00     0.027 C 
BRANCH   7   8
HETATM    8  C   UNL     1       8.127 -12.757  -6.445  1.00  0.00    -0.030 C 
HETATM    9  C   UNL     1       9.260 -12.126  -6.083  1.00  0.00    -0.027 C 
BRANCH   9  10
HETATM   10  C   UNL     1      10.065 -12.416  -4.841  1.00  0.00     0.053 C 
BRANCH  10  11
HETATM   11  C   UNL     1      11.418 -12.998  -5.188  1.00  0.00    -0.027 C 
HETATM   12  C   UNL     1      11.718 -14.291  -5.427  1.00  0.00    -0.027 C 
BRANCH  12  13
HETATM   13  C   UNL     1      10.766 -15.459  -5.424  1.00  0.00     0.053 C 
BRANCH  13  14
HETATM   14  C   UNL     1      11.089 -16.393  -6.567  1.00  0.00    -0.027 C 
HETATM   15  C   UNL     1      10.894 -16.114  -7.872  1.00  0.00    -0.027 C 
BRANCH  15  16
HETATM   16  C   UNL     1      10.305 -14.829  -8.392  1.00  0.00     0.053 C 
BRANCH  16  17
HETATM   17  C   UNL     1      11.327 -14.020  -9.151  1.00  0.00    -0.027 C 
HETATM   18  C   UNL     1      11.073 -12.823  -9.708  1.00  0.00    -0.030 C 
BRANCH  18  19
HETATM   19  C   UNL     1       9.739 -12.121  -9.667  1.00  0.00     0.027 C 
BRANCH  19  20
HETATM   20  C   UNL     1       9.189 -11.979 -11.090  1.00  0.00     0.004 C 
BRANCH  20  21
HETATM   21  C   UNL     1       8.517 -13.275 -11.557  1.00  0.00    -0.000 C 
BRANCH  21  22
HETATM   22  C   UNL     1       7.543 -13.799 -10.496  1.00  0.00    -0.005 C 
HETATM   23  C   UNL     1       7.326 -15.303 -10.641  1.00  0.00     0.005 C 
ENDBRANCH  21  22
ENDBRANCH  20  21
ENDBRANCH  19  20
ENDBRANCH  18  19
ENDBRANCH  16  17
ENDBRANCH  15  16
ENDBRANCH  13  14
ENDBRANCH  12  13
ENDBRANCH  10  11
ENDBRANCH   9  10
ENDBRANCH   7   8
ENDBRANCH   6   7
ENDBRANCH   5   6
ENDBRANCH   3   5
ENDBRANCH   1   3
TORSDOF 15
ENDMDL
MODEL 16
REMARK VINA RESULT:      -4.4     23.436     25.755
REMARK  15 active torsions:
REMARK  status: ('A' for Active; 'I' for Inactive)
REMARK    1  A    between atoms: O_1  and  C_22 
REMARK    2  A    between atoms: C_3  and  C_4 
REMARK    3  A    between atoms: C_3  and  C_5 
REMARK    4  A    between atoms: C_4  and  C_6 
REMARK    5  A    between atoms: C_5  and  C_7 
REMARK    6  A    between atoms: C_9  and  C_10 
REMARK    7  A    between atoms: C_9  and  C_13 
REMARK    8  A    between atoms: C_10  and  C_14 
REMARK    9  A    between atoms: C_11  and  C_12 
REMARK   10  A    between atoms: C_12  and  C_16 
REMARK   11  A    between atoms: C_13  and  C_22 
REMARK   12  A    between atoms: C_15  and  C_17 
REMARK   13  A    between atoms: C_15  and  C_20 
REMARK   14  A    between atoms: C_18  and  C_19 
REMARK   15  A    between atoms: C_18  and  C_21 
ROOT
HETATM    1  O   UNL     1       5.221 -17.650  -9.903  1.00  0.00    -0.776 OA
HETATM    2  H   UNL     1       4.779 -17.371  -9.089  1.00  0.00     0.167 HD
ENDROOT
BRANCH   1   3
HETATM    3  C   UNL     1       5.393 -16.799 -10.936  1.00  0.00     0.139 C 
HETATM    4  O   UNL     1       4.485 -16.609 -11.732  1.00  0.00    -0.650 OA
BRANCH   3   5
HETATM    5  C   UNL     1       6.710 -16.093 -11.111  1.00  0.00     0.110 C 
BRANCH   5   6
HETATM    6  C   UNL     1       7.458 -15.915  -9.782  1.00  0.00     0.014 C 
BRANCH   6   7
HETATM    7  C   UNL     1       8.558 -16.964  -9.578  1.00  0.00     0.027 C 
BRANCH   7   8
HETATM    8  C   UNL     1       9.775 -16.313  -8.970  1.00  0.00    -0.030 C 
HETATM    9  C   UNL     1      10.714 -15.632  -9.653  1.00  0.00    -0.027 C 
BRANCH   9  10
HETATM   10  C   UNL     1      10.703 -15.380 -11.140  1.00  0.00     0.053 C 
BRANCH  10  11
HETATM   11  C   UNL     1      11.076 -16.627 -11.910  1.00  0.00    -0.027 C 
HETATM   12  C   UNL     1      10.635 -17.001 -13.129  1.00  0.00    -0.027 C 
BRANCH  12  13
HETATM   13  C   UNL     1       9.678 -16.248 -14.018  1.00  0.00     0.053 C 
BRANCH  13  14
HETATM   14  C   UNL     1      10.372 -15.841 -15.296  1.00  0.00    -0.027 C 
HETATM   15  C   UNL     1      11.022 -14.674 -15.486  1.00  0.00    -0.027 C 
BRANCH  15  16
HETATM   16  C   UNL     1      11.140 -13.585 -14.452  1.00  0.00     0.053 C 
BRANCH  16  17
HETATM   17  C   UNL     1      10.230 -12.424 -14.765  1.00  0.00    -0.027 C 
HETATM   18  C   UNL     1       9.149 -12.101 -14.034  1.00  0.00    -0.030 C 
BRANCH  18  19
HETATM   19  C   UNL     1       8.683 -12.849 -12.810  1.00  0.00     0.027 C 
BRANCH  19  20
HETATM   20  C   UNL     1       9.241 -12.177 -11.552  1.00  0.00     0.004 C 
BRANCH  20  21
HETATM   21  C   UNL     1       8.367 -12.476 -10.329  1.00  0.00    -0.000 C 
BRANCH  21  22
HETATM   22  C   UNL     1       9.087 -12.082  -9.034  1.00  0.00    -0.005 C 
HETATM   23  C   UNL     1       8.662 -12.977  -7.873  1.00  0.00     0.005 C 
ENDBRANCH  21  22
ENDBRANCH  20  21
ENDBRANCH  19  20
ENDBRANCH  18  19
ENDBRANCH  16  17
ENDBRANCH  15  16
ENDBRANCH  13  14
ENDBRANCH  12  13
ENDBRANCH  10  11
ENDBRANCH   9  10
ENDBRANCH   7   8
ENDBRANCH   6   7
ENDBRANCH   5   6
ENDBRANCH   3   5
ENDBRANCH   1   3
TORSDOF 15
ENDMDL
MODEL 17
REMARK VINA RESULT:      -4.4     40.334     41.569
REMARK  15 active torsions:
REMARK  status: ('A' for Active; 'I' for Inactive)
REMARK    1  A    between atoms: O_1  and  C_22 
REMARK    2  A    between atoms: C_3  and  C_4 
REMARK    3  A    between atoms: C_3  and  C_5 
REMARK    4  A    between atoms: C_4  and  C_6 
REMARK    5  A    between atoms: C_5  and  C_7 
REMARK    6  A    between atoms: C_9  and  C_10 
REMARK    7  A    between atoms: C_9  and  C_13 
REMARK    8  A    between atoms: C_10  and  C_14 
REMARK    9  A    between atoms: C_11  and  C_12 
REMARK   10  A    between atoms: C_12  and  C_16 
REMARK   11  A    between atoms: C_13  and  C_22 
REMARK   12  A    between atoms: C_15  and  C_17 
REMARK   13  A    between atoms: C_15  and  C_20 
REMARK   14  A    between atoms: C_18  and  C_19 
REMARK   15  A    between atoms: C_18  and  C_21 
ROOT
HETATM    1  O   UNL     1      27.100 -13.663  -4.572  1.00  0.00    -0.776 OA
HETATM    2  H   UNL     1      26.332 -13.357  -5.073  1.00  0.00     0.167 HD
ENDROOT
BRANCH   1   3
HETATM    3  C   UNL     1      27.068 -14.817  -3.871  1.00  0.00     0.139 C 
HETATM    4  O   UNL     1      27.267 -14.806  -2.665  1.00  0.00    -0.650 OA
BRANCH   3   5
HETATM    5  C   UNL     1      26.799 -16.115  -4.580  1.00  0.00     0.110 C 
BRANCH   5   6
HETATM    6  C   UNL     1      28.091 -16.842  -4.978  1.00  0.00     0.014 C 
BRANCH   6   7
HETATM    7  C   UNL     1      27.898 -17.780  -6.177  1.00  0.00     0.027 C 
BRANCH   7   8
HETATM    8  C   UNL     1      26.459 -17.739  -6.626  1.00  0.00    -0.030 C 
HETATM    9  C   UNL     1      26.044 -17.490  -7.883  1.00  0.00    -0.027 C 
BRANCH   9  10
HETATM   10  C   UNL     1      26.944 -17.232  -9.065  1.00  0.00     0.053 C 
BRANCH  10  11
HETATM   11  C   UNL     1      26.732 -15.842  -9.621  1.00  0.00    -0.027 C 
HETATM   12  C   UNL     1      27.172 -14.676  -9.105  1.00  0.00    -0.027 C 
BRANCH  12  13
HETATM   13  C   UNL     1      27.997 -14.490  -7.858  1.00  0.00     0.053 C 
BRANCH  13  14
HETATM   14  C   UNL     1      29.461 -14.693  -8.171  1.00  0.00    -0.027 C 
HETATM   15  C   UNL     1      30.472 -14.514  -7.296  1.00  0.00    -0.027 C 
BRANCH  15  16
HETATM   16  C   UNL     1      30.296 -14.065  -5.869  1.00  0.00     0.053 C 
BRANCH  16  17
HETATM   17  C   UNL     1      30.997 -12.754  -5.612  1.00  0.00    -0.027 C 
HETATM   18  C   UNL     1      30.449 -11.551  -5.853  1.00  0.00    -0.030 C 
BRANCH  18  19
HETATM   19  C   UNL     1      29.070 -11.332  -6.423  1.00  0.00     0.027 C 
BRANCH  19  20
HETATM   20  C   UNL     1      29.174 -10.553  -7.738  1.00  0.00     0.004 C 
BRANCH  20  21
HETATM   21  C   UNL     1      30.464 -10.902  -8.489  1.00  0.00    -0.000 C 
BRANCH  21  22
HETATM   22  C   UNL     1      30.193 -11.081  -9.987  1.00  0.00    -0.005 C 
HETATM   23  C   UNL     1      28.801 -11.658 -10.230  1.00  0.00     0.005 C 
ENDBRANCH  21  22
ENDBRANCH  20  21
ENDBRANCH  19  20
ENDBRANCH  18  19
ENDBRANCH  16  17
ENDBRANCH  15  16
ENDBRANCH  13  14
ENDBRANCH  12  13
ENDBRANCH  10  11
ENDBRANCH   9  10
ENDBRANCH   7   8
ENDBRANCH   6   7
ENDBRANCH   5   6
ENDBRANCH   3   5
ENDBRANCH   1   3
TORSDOF 15
ENDMDL
MODEL 18
REMARK VINA RESULT:      -4.4     22.980     25.719
REMARK  15 active torsions:
REMARK  status: ('A' for Active; 'I' for Inactive)
REMARK    1  A    between atoms: O_1  and  C_22 
REMARK    2  A    between atoms: C_3  and  C_4 
REMARK    3  A    between atoms: C_3  and  C_5 
REMARK    4  A    between atoms: C_4  and  C_6 
REMARK    5  A    between atoms: C_5  and  C_7 
REMARK    6  A    between atoms: C_9  and  C_10 
REMARK    7  A    between atoms: C_9  and  C_13 
REMARK    8  A    between atoms: C_10  and  C_14 
REMARK    9  A    between atoms: C_11  and  C_12 
REMARK   10  A    between atoms: C_12  and  C_16 
REMARK   11  A    between atoms: C_13  and  C_22 
REMARK   12  A    between atoms: C_15  and  C_17 
REMARK   13  A    between atoms: C_15  and  C_20 
REMARK   14  A    between atoms: C_18  and  C_19 
REMARK   15  A    between atoms: C_18  and  C_21 
ROOT
HETATM    1  O   UNL     1       8.373 -14.311  -8.205  1.00  0.00    -0.776 OA
HETATM    2  H   UNL     1       8.546 -15.035  -7.587  1.00  0.00     0.167 HD
ENDROOT
BRANCH   1   3
HETATM    3  C   UNL     1       9.116 -13.184  -8.193  1.00  0.00     0.139 C 
HETATM    4  O   UNL     1       9.621 -12.794  -7.151  1.00  0.00    -0.650 OA
BRANCH   3   5
HETATM    5  C   UNL     1       9.311 -12.405  -9.465  1.00  0.00     0.110 C 
BRANCH   5   6
HETATM    6  C   UNL     1       8.182 -12.646 -10.477  1.00  0.00     0.014 C 
BRANCH   6   7
HETATM    7  C   UNL     1       8.426 -11.938 -11.815  1.00  0.00     0.027 C 
BRANCH   7   8
HETATM    8  C   UNL     1       9.631 -12.539 -12.496  1.00  0.00    -0.030 C 
HETATM    9  C   UNL     1       9.636 -13.084 -13.727  1.00  0.00    -0.027 C 
BRANCH   9  10
HETATM   10  C   UNL     1       8.447 -13.168 -14.651  1.00  0.00     0.053 C 
BRANCH  10  11
HETATM   11  C   UNL     1       8.436 -12.021 -15.636  1.00  0.00    -0.027 C 
HETATM   12  C   UNL     1       8.646 -12.081 -16.967  1.00  0.00    -0.027 C 
BRANCH  12  13
HETATM   13  C   UNL     1       8.921 -13.315 -17.788  1.00  0.00     0.053 C 
BRANCH  13  14
HETATM   14  C   UNL     1      10.411 -13.522 -17.926  1.00  0.00    -0.027 C 
HETATM   15  C   UNL     1      11.101 -14.551 -17.393  1.00  0.00    -0.027 C 
BRANCH  15  16
HETATM   16  C   UNL     1      10.492 -15.647 -16.559  1.00  0.00     0.053 C 
BRANCH  16  17
HETATM   17  C   UNL     1      11.379 -16.015 -15.396  1.00  0.00    -0.027 C 
HETATM   18  C   UNL     1      10.922 -16.514 -14.233  1.00  0.00    -0.030 C 
BRANCH  18  19
HETATM   19  C   UNL     1       9.470 -16.767 -13.917  1.00  0.00     0.027 C 
BRANCH  19  20
HETATM   20  C   UNL     1       9.180 -16.360 -12.468  1.00  0.00     0.004 C 
BRANCH  20  21
HETATM   21  C   UNL     1      10.351 -16.719 -11.547  1.00  0.00    -0.000 C 
BRANCH  21  22
HETATM   22  C   UNL     1      10.760 -15.516 -10.689  1.00  0.00    -0.005 C 
HETATM   23  C   UNL     1      11.401 -15.966  -9.380  1.00  0.00     0.005 C 
ENDBRANCH  21  22
ENDBRANCH  20  21
ENDBRANCH  19  20
ENDBRANCH  18  19
ENDBRANCH  16  17
ENDBRANCH  15  16
ENDBRANCH  13  14
ENDBRANCH  12  13
ENDBRANCH  10  11
ENDBRANCH   9  10
ENDBRANCH   7   8
ENDBRANCH   6   7
ENDBRANCH   5   6
ENDBRANCH   3   5
ENDBRANCH   1   3
TORSDOF 15
ENDMDL
MODEL 19
REMARK VINA RESULT:      -4.4     23.193     25.092
REMARK  15 active torsions:
REMARK  status: ('A' for Active; 'I' for Inactive)
REMARK    1  A    between atoms: O_1  and  C_22 
REMARK    2  A    between atoms: C_3  and  C_4 
REMARK    3  A    between atoms: C_3  and  C_5 
REMARK    4  A    between atoms: C_4  and  C_6 
REMARK    5  A    between atoms: C_5  and  C_7 
REMARK    6  A    between atoms: C_9  and  C_10 
REMARK    7  A    between atoms: C_9  and  C_13 
REMARK    8  A    between atoms: C_10  and  C_14 
REMARK    9  A    between atoms: C_11  and  C_12 
REMARK   10  A    between atoms: C_12  and  C_16 
REMARK   11  A    between atoms: C_13  and  C_22 
REMARK   12  A    between atoms: C_15  and  C_17 
REMARK   13  A    between atoms: C_15  and  C_20 
REMARK   14  A    between atoms: C_18  and  C_19 
REMARK   15  A    between atoms: C_18  and  C_21 
ROOT
HETATM    1  O   UNL     1      10.573 -14.952  -8.091  1.00  0.00    -0.776 OA
HETATM    2  H   UNL     1      11.414 -15.359  -7.844  1.00  0.00     0.167 HD
ENDROOT
BRANCH   1   3
HETATM    3  C   UNL     1      10.489 -14.074  -9.113  1.00  0.00     0.139 C 
HETATM    4  O   UNL     1      11.258 -14.162 -10.060  1.00  0.00    -0.650 OA
BRANCH   3   5
HETATM    5  C   UNL     1       9.456 -12.983  -9.080  1.00  0.00     0.110 C 
BRANCH   5   6
HETATM    6  C   UNL     1       9.847 -11.780  -9.950  1.00  0.00     0.014 C 
BRANCH   6   7
HETATM    7  C   UNL     1       8.759 -11.405 -10.965  1.00  0.00     0.027 C 
BRANCH   7   8
HETATM    8  C   UNL     1       8.090 -12.655 -11.478  1.00  0.00    -0.030 C 
HETATM    9  C   UNL     1       8.399 -13.286 -12.627  1.00  0.00    -0.027 C 
BRANCH   9  10
HETATM   10  C   UNL     1       9.482 -12.868 -13.589  1.00  0.00     0.053 C 
BRANCH  10  11
HETATM   11  C   UNL     1      10.770 -13.617 -13.324  1.00  0.00    -0.027 C 
HETATM   12  C   UNL     1      11.363 -14.535 -14.115  1.00  0.00    -0.027 C 
BRANCH  12  13
HETATM   13  C   UNL     1      10.888 -15.014 -15.462  1.00  0.00     0.053 C 
BRANCH  13  14
HETATM   14  C   UNL     1      11.297 -14.033 -16.535  1.00  0.00    -0.027 C 
HETATM   15  C   UNL     1      10.535 -13.674 -17.587  1.00  0.00    -0.027 C 
BRANCH  15  16
HETATM   16  C   UNL     1       9.156 -14.213 -17.866  1.00  0.00     0.053 C 
BRANCH  16  17
HETATM   17  C   UNL     1       8.090 -13.369 -17.212  1.00  0.00    -0.027 C 
HETATM   18  C   UNL     1       7.281 -13.809 -16.233  1.00  0.00    -0.030 C 
BRANCH  18  19
HETATM   19  C   UNL     1       7.308 -15.201 -15.655  1.00  0.00     0.027 C 
BRANCH  19  20
HETATM   20  C   UNL     1       6.338 -16.099 -16.429  1.00  0.00     0.004 C 
BRANCH  20  21
HETATM   21  C   UNL     1       7.091 -17.132 -17.273  1.00  0.00    -0.000 C 
BRANCH  21  22
HETATM   22  C   UNL     1       8.366 -17.596 -16.559  1.00  0.00    -0.005 C 
HETATM   23  C   UNL     1       9.484 -17.882 -17.558  1.00  0.00     0.005 C 
ENDBRANCH  21  22
ENDBRANCH  20  21
ENDBRANCH  19  20
ENDBRANCH  18  19
ENDBRANCH  16  17
ENDBRANCH  15  16
ENDBRANCH  13  14
ENDBRANCH  12  13
ENDBRANCH  10  11
ENDBRANCH   9  10
ENDBRANCH   7   8
ENDBRANCH   6   7
ENDBRANCH   5   6
ENDBRANCH   3   5
ENDBRANCH   1   3
TORSDOF 15
ENDMDL
MODEL 20
REMARK VINA RESULT:      -4.4     23.093     25.460
REMARK  15 active torsions:
REMARK  status: ('A' for Active; 'I' for Inactive)
REMARK    1  A    between atoms: O_1  and  C_22 
REMARK    2  A    between atoms: C_3  and  C_4 
REMARK    3  A    between atoms: C_3  and  C_5 
REMARK    4  A    between atoms: C_4  and  C_6 
REMARK    5  A    between atoms: C_5  and  C_7 
REMARK    6  A    between atoms: C_9  and  C_10 
REMARK    7  A    between atoms: C_9  and  C_13 
REMARK    8  A    between atoms: C_10  and  C_14 
REMARK    9  A    between atoms: C_11  and  C_12 
REMARK   10  A    between atoms: C_12  and  C_16 
REMARK   11  A    between atoms: C_13  and  C_22 
REMARK   12  A    between atoms: C_15  and  C_17 
REMARK   13  A    between atoms: C_15  and  C_20 
REMARK   14  A    between atoms: C_18  and  C_19 
REMARK   15  A    between atoms: C_18  and  C_21 
ROOT
HETATM    1  O   UNL     1       7.717 -12.918  -7.231  1.00  0.00    -0.776 OA
HETATM    2  H   UNL     1       8.286 -12.621  -6.507  1.00  0.00     0.167 HD
ENDROOT
BRANCH   1   3
HETATM    3  C   UNL     1       7.829 -14.160  -7.749  1.00  0.00     0.139 C 
HETATM    4  O   UNL     1       7.225 -15.092  -7.240  1.00  0.00    -0.650 OA
BRANCH   3   5
HETATM    5  C   UNL     1       8.707 -14.394  -8.948  1.00  0.00     0.110 C 
BRANCH   5   6
HETATM    6  C   UNL     1       8.310 -13.516 -10.143  1.00  0.00     0.014 C 
BRANCH   6   7
HETATM    7  C   UNL     1       9.480 -12.679 -10.676  1.00  0.00     0.027 C 
BRANCH   7   8
HETATM    8  C   UNL     1      10.737 -13.512 -10.686  1.00  0.00    -0.030 C 
HETATM    9  C   UNL     1      11.169 -14.254 -11.723  1.00  0.00    -0.027 C 
BRANCH   9  10
HETATM   10  C   UNL     1      10.485 -14.366 -13.063  1.00  0.00     0.053 C 
BRANCH  10  11
HETATM   11  C   UNL     1      11.229 -13.585 -14.124  1.00  0.00    -0.027 C 
HETATM   12  C   UNL     1      10.830 -12.454 -14.741  1.00  0.00    -0.027 C 
BRANCH  12  13
HETATM   13  C   UNL     1       9.552 -11.691 -14.500  1.00  0.00     0.053 C 
BRANCH  13  14
HETATM   14  C   UNL     1       8.819 -11.486 -15.805  1.00  0.00    -0.027 C 
HETATM   15  C   UNL     1       8.063 -12.417 -16.422  1.00  0.00    -0.027 C 
BRANCH  15  16
HETATM   16  C   UNL     1       7.848 -13.818 -15.910  1.00  0.00     0.053 C 
BRANCH  16  17
HETATM   17  C   UNL     1       7.714 -14.805 -17.042  1.00  0.00    -0.027 C 
HETATM   18  C   UNL     1       8.741 -15.511 -17.547  1.00  0.00    -0.030 C 
BRANCH  18  19
HETATM   19  C   UNL     1      10.168 -15.414 -17.070  1.00  0.00     0.027 C 
BRANCH  19  20
HETATM   20  C   UNL     1      10.754 -16.821 -16.910  1.00  0.00     0.004 C 
BRANCH  20  21
HETATM   21  C   UNL     1      10.780 -17.247 -15.438  1.00  0.00    -0.000 C 
BRANCH  21  22
HETATM   22  C   UNL     1      12.188 -17.098 -14.851  1.00  0.00    -0.005 C 
HETATM   23  C   UNL     1      12.894 -18.448 -14.763  1.00  0.00     0.005 C 
ENDBRANCH  21  22
ENDBRANCH  20  21
ENDBRANCH  19  20
ENDBRANCH  18  19
ENDBRANCH  16  17
ENDBRANCH  15  16
ENDBRANCH  13  14
ENDBRANCH  12  13
ENDBRANCH  10  11
ENDBRANCH   9  10
ENDBRANCH   7   8
ENDBRANCH   6   7
ENDBRANCH   5   6
ENDBRANCH   3   5
ENDBRANCH   1   3
TORSDOF 15
ENDMDL
