MODEL 1
REMARK VINA RESULT:      -4.7      0.000      0.000
REMARK  15 active torsions:
REMARK  status: ('A' for Active; 'I' for Inactive)
REMARK    1  A    between atoms: O_1  and  C_23 
REMARK    2  A    between atoms: C_3  and  C_7 
REMARK    3  A    between atoms: C_3  and  C_8 
REMARK    4  A    between atoms: C_4  and  C_10 
REMARK    5  A    between atoms: C_4  and  C_11 
REMARK    6  A    between atoms: C_5  and  C_12 
REMARK    7  A    between atoms: C_5  and  C_13 
REMARK    8  A    between atoms: C_6  and  C_15 
REMARK    9  A    between atoms: C_6  and  C_16 
REMARK   10  A    between atoms: C_7  and  C_23 
REMARK   11  A    between atoms: C_9  and  C_17 
REMARK   12  A    between atoms: C_9  and  C_18 
REMARK   13  A    between atoms: C_14  and  C_19 
REMARK   14  A    between atoms: C_14  and  C_20 
REMARK   15  A    between atoms: C_21  and  C_22 
ROOT
HETATM    1  O   UNL     1      25.544 -14.256 -14.356  1.00  0.00    -0.776 OA
HETATM    2  H   UNL     1      25.516 -14.906 -15.071  1.00  0.00     0.167 HD
ENDROOT
BRANCH   1   3
HETATM    3  C   UNL     1      26.648 -13.514 -14.122  1.00  0.00     0.139 C 
HETATM    4  O   UNL     1      26.890 -13.115 -12.992  1.00  0.00    -0.650 OA
BRANCH   3   5
HETATM    5  C   UNL     1      27.578 -13.184 -15.254  1.00  0.00     0.113 C 
BRANCH   5   6
HETATM    6  C   UNL     1      28.934 -12.702 -14.726  1.00  0.00     0.037 C 
BRANCH   6   7
HETATM    7  C   UNL     1      29.929 -12.569 -15.854  1.00  0.00    -0.030 C 
HETATM    8  C   UNL     1      31.060 -11.833 -15.857  1.00  0.00    -0.027 C 
BRANCH   8   9
HETATM    9  C   UNL     1      31.600 -10.969 -14.737  1.00  0.00     0.053 C 
BRANCH   9  10
HETATM   10  C   UNL     1      32.951 -10.405 -15.099  1.00  0.00    -0.027 C 
HETATM   11  C   UNL     1      34.070 -10.511 -14.359  1.00  0.00    -0.027 C 
BRANCH  11  12
HETATM   12  C   UNL     1      34.191 -11.264 -13.060  1.00  0.00     0.053 C 
BRANCH  12  13
HETATM   13  C   UNL     1      34.892 -10.430 -12.017  1.00  0.00    -0.027 C 
HETATM   14  C   UNL     1      34.352  -9.933 -10.889  1.00  0.00    -0.027 C 
BRANCH  14  15
HETATM   15  C   UNL     1      32.915 -10.070 -10.459  1.00  0.00     0.053 C 
BRANCH  15  16
HETATM   16  C   UNL     1      32.741 -11.413  -9.785  1.00  0.00    -0.027 C 
HETATM   17  C   UNL     1      31.951 -12.436 -10.169  1.00  0.00    -0.027 C 
BRANCH  17  18
HETATM   18  C   UNL     1      31.060 -12.492 -11.382  1.00  0.00     0.053 C 
BRANCH  18  19
HETATM   19  C   UNL     1      30.725 -13.923 -11.732  1.00  0.00    -0.027 C 
HETATM   20  C   UNL     1      31.330 -14.707 -12.648  1.00  0.00    -0.027 C 
BRANCH  20  21
HETATM   21  C   UNL     1      32.522 -14.354 -13.503  1.00  0.00     0.053 C 
BRANCH  21  22
HETATM   22  C   UNL     1      32.513 -15.143 -14.791  1.00  0.00    -0.027 C 
HETATM   23  C   UNL     1      33.252 -14.913 -15.894  1.00  0.00    -0.031 C 
BRANCH  23  24
HETATM   24  C   UNL     1      34.245 -13.797 -16.091  1.00  0.00     0.022 C 
HETATM   25  C   UNL     1      35.591 -14.092 -15.442  1.00  0.00     0.009 C 
ENDBRANCH  23  24
ENDBRANCH  21  22
ENDBRANCH  20  21
ENDBRANCH  18  19
ENDBRANCH  17  18
ENDBRANCH  15  16
ENDBRANCH  14  15
ENDBRANCH  12  13
ENDBRANCH  11  12
ENDBRANCH   9  10
ENDBRANCH   8   9
ENDBRANCH   6   7
ENDBRANCH   5   6
ENDBRANCH   3   5
ENDBRANCH   1   3
TORSDOF 15
ENDMDL
MODEL 2
REMARK VINA RESULT:      -4.6      3.635      5.693
REMARK  15 active torsions:
REMARK  status: ('A' for Active; 'I' for Inactive)
REMARK    1  A    between atoms: O_1  and  C_23 
REMARK    2  A    between atoms: C_3  and  C_7 
REMARK    3  A    between atoms: C_3  and  C_8 
REMARK    4  A    between atoms: C_4  and  C_10 
REMARK    5  A    between atoms: C_4  and  C_11 
REMARK    6  A    between atoms: C_5  and  C_12 
REMARK    7  A    between atoms: C_5  and  C_13 
REMARK    8  A    between atoms: C_6  and  C_15 
REMARK    9  A    between atoms: C_6  and  C_16 
REMARK   10  A    between atoms: C_7  and  C_23 
REMARK   11  A    between atoms: C_9  and  C_17 
REMARK   12  A    between atoms: C_9  and  C_18 
REMARK   13  A    between atoms: C_14  and  C_19 
REMARK   14  A    between atoms: C_14  and  C_20 
REMARK   15  A    between atoms: C_21  and  C_22 
ROOT
HETATM    1  O   UNL     1      25.910 -14.118 -19.410  1.00  0.00    -0.776 OA
HETATM    2  H   UNL     1      25.508 -14.227 -18.537  1.00  0.00     0.167 HD
ENDROOT
BRANCH   1   3
HETATM    3  C   UNL     1      27.118 -13.537 -19.562  1.00  0.00     0.139 C 
HETATM    4  O   UNL     1      27.880 -13.926 -20.436  1.00  0.00    -0.650 OA
BRANCH   3   5
HETATM    5  C   UNL     1      27.522 -12.408 -18.656  1.00  0.00     0.113 C 
BRANCH   5   6
HETATM    6  C   UNL     1      27.697 -12.899 -17.215  1.00  0.00     0.037 C 
BRANCH   6   7
HETATM    7  C   UNL     1      28.484 -11.898 -16.403  1.00  0.00    -0.030 C 
HETATM    8  C   UNL     1      28.536 -11.804 -15.058  1.00  0.00    -0.027 C 
BRANCH   8   9
HETATM    9  C   UNL     1      27.822 -12.673 -14.045  1.00  0.00     0.053 C 
BRANCH   9  10
HETATM   10  C   UNL     1      27.776 -12.000 -12.697  1.00  0.00    -0.027 C 
HETATM   11  C   UNL     1      28.680 -12.152 -11.712  1.00  0.00    -0.027 C 
BRANCH  11  12
HETATM   12  C   UNL     1      29.937 -12.978 -11.799  1.00  0.00     0.053 C 
BRANCH  12  13
HETATM   13  C   UNL     1      29.677 -14.399 -11.363  1.00  0.00    -0.027 C 
HETATM   14  C   UNL     1      30.034 -15.518 -12.020  1.00  0.00    -0.027 C 
BRANCH  14  15
HETATM   15  C   UNL     1      30.725 -15.581 -13.355  1.00  0.00     0.053 C 
BRANCH  15  16
HETATM   16  C   UNL     1      29.675 -15.717 -14.435  1.00  0.00    -0.027 C 
HETATM   17  C   UNL     1      29.804 -15.467 -15.754  1.00  0.00    -0.027 C 
BRANCH  17  18
HETATM   18  C   UNL     1      31.044 -15.008 -16.475  1.00  0.00     0.053 C 
BRANCH  18  19
HETATM   19  C   UNL     1      30.811 -14.975 -17.967  1.00  0.00    -0.027 C 
HETATM   20  C   UNL     1      30.999 -13.935 -18.805  1.00  0.00    -0.027 C 
BRANCH  20  21
HETATM   21  C   UNL     1      31.541 -12.571 -18.455  1.00  0.00     0.053 C 
BRANCH  21  22
HETATM   22  C   UNL     1      31.057 -11.532 -19.439  1.00  0.00    -0.027 C 
HETATM   23  C   UNL     1      31.800 -10.613 -20.086  1.00  0.00    -0.031 C 
BRANCH  23  24
HETATM   24  C   UNL     1      33.287 -10.409 -19.956  1.00  0.00     0.022 C 
HETATM   25  C   UNL     1      34.039 -10.767 -21.231  1.00  0.00     0.009 C 
ENDBRANCH  23  24
ENDBRANCH  21  22
ENDBRANCH  20  21
ENDBRANCH  18  19
ENDBRANCH  17  18
ENDBRANCH  15  16
ENDBRANCH  14  15
ENDBRANCH  12  13
ENDBRANCH  11  12
ENDBRANCH   9  10
ENDBRANCH   8   9
ENDBRANCH   6   7
ENDBRANCH   5   6
ENDBRANCH   3   5
ENDBRANCH   1   3
TORSDOF 15
ENDMDL
MODEL 3
REMARK VINA RESULT:      -4.5      8.971     11.135
REMARK  15 active torsions:
REMARK  status: ('A' for Active; 'I' for Inactive)
REMARK    1  A    between atoms: O_1  and  C_23 
REMARK    2  A    between atoms: C_3  and  C_7 
REMARK    3  A    between atoms: C_3  and  C_8 
REMARK    4  A    between atoms: C_4  and  C_10 
REMARK    5  A    between atoms: C_4  and  C_11 
REMARK    6  A    between atoms: C_5  and  C_12 
REMARK    7  A    between atoms: C_5  and  C_13 
REMARK    8  A    between atoms: C_6  and  C_15 
REMARK    9  A    between atoms: C_6  and  C_16 
REMARK   10  A    between atoms: C_7  and  C_23 
REMARK   11  A    between atoms: C_9  and  C_17 
REMARK   12  A    between atoms: C_9  and  C_18 
REMARK   13  A    between atoms: C_14  and  C_19 
REMARK   14  A    between atoms: C_14  and  C_20 
REMARK   15  A    between atoms: C_21  and  C_22 
ROOT
HETATM    1  O   UNL     1      41.707 -11.261 -12.311  1.00  0.00    -0.776 OA
HETATM    2  H   UNL     1      42.145 -10.405 -12.412  1.00  0.00     0.167 HD
ENDROOT
BRANCH   1   3
HETATM    3  C   UNL     1      40.818 -11.709 -13.223  1.00  0.00     0.139 C 
HETATM    4  O   UNL     1      40.971 -11.447 -14.408  1.00  0.00    -0.650 OA
BRANCH   3   5
HETATM    5  C   UNL     1      39.643 -12.532 -12.778  1.00  0.00     0.113 C 
BRANCH   5   6
HETATM    6  C   UNL     1      39.936 -14.030 -12.928  1.00  0.00     0.037 C 
BRANCH   6   7
HETATM    7  C   UNL     1      40.732 -14.537 -11.750  1.00  0.00    -0.030 C 
HETATM    8  C   UNL     1      40.398 -14.447 -10.445  1.00  0.00    -0.027 C 
BRANCH   8   9
HETATM    9  C   UNL     1      39.154 -13.820  -9.853  1.00  0.00     0.053 C 
BRANCH   9  10
HETATM   10  C   UNL     1      39.500 -12.582  -9.065  1.00  0.00    -0.027 C 
HETATM   11  C   UNL     1      39.104 -12.316  -7.807  1.00  0.00    -0.027 C 
BRANCH  11  12
HETATM   12  C   UNL     1      38.290 -13.235  -6.934  1.00  0.00     0.053 C 
BRANCH  12  13
HETATM   13  C   UNL     1      39.019 -13.543  -5.649  1.00  0.00    -0.027 C 
HETATM   14  C   UNL     1      39.863 -14.569  -5.431  1.00  0.00    -0.027 C 
BRANCH  14  15
HETATM   15  C   UNL     1      40.215 -15.652  -6.416  1.00  0.00     0.053 C 
BRANCH  15  16
HETATM   16  C   UNL     1      41.520 -15.286  -7.088  1.00  0.00    -0.027 C 
HETATM   17  C   UNL     1      42.349 -16.090  -7.784  1.00  0.00    -0.027 C 
BRANCH  17  18
HETATM   18  C   UNL     1      42.160 -17.556  -8.076  1.00  0.00     0.053 C 
BRANCH  18  19
HETATM   19  C   UNL     1      41.254 -17.749  -9.269  1.00  0.00    -0.027 C 
HETATM   20  C   UNL     1      41.614 -18.036 -10.537  1.00  0.00    -0.027 C 
BRANCH  20  21
HETATM   21  C   UNL     1      43.011 -18.285 -11.051  1.00  0.00     0.053 C 
BRANCH  21  22
HETATM   22  C   UNL     1      43.704 -16.983 -11.378  1.00  0.00    -0.027 C 
HETATM   23  C   UNL     1      43.669 -16.313 -12.547  1.00  0.00    -0.031 C 
BRANCH  23  24
HETATM   24  C   UNL     1      42.940 -16.728 -13.798  1.00  0.00     0.022 C 
HETATM   25  C   UNL     1      43.859 -17.395 -14.814  1.00  0.00     0.009 C 
ENDBRANCH  23  24
ENDBRANCH  21  22
ENDBRANCH  20  21
ENDBRANCH  18  19
ENDBRANCH  17  18
ENDBRANCH  15  16
ENDBRANCH  14  15
ENDBRANCH  12  13
ENDBRANCH  11  12
ENDBRANCH   9  10
ENDBRANCH   8   9
ENDBRANCH   6   7
ENDBRANCH   5   6
ENDBRANCH   3   5
ENDBRANCH   1   3
TORSDOF 15
ENDMDL
MODEL 4
REMARK VINA RESULT:      -4.4      2.574      5.529
REMARK  15 active torsions:
REMARK  status: ('A' for Active; 'I' for Inactive)
REMARK    1  A    between atoms: O_1  and  C_23 
REMARK    2  A    between atoms: C_3  and  C_7 
REMARK    3  A    between atoms: C_3  and  C_8 
REMARK    4  A    between atoms: C_4  and  C_10 
REMARK    5  A    between atoms: C_4  and  C_11 
REMARK    6  A    between atoms: C_5  and  C_12 
REMARK    7  A    between atoms: C_5  and  C_13 
REMARK    8  A    between atoms: C_6  and  C_15 
REMARK    9  A    between atoms: C_6  and  C_16 
REMARK   10  A    between atoms: C_7  and  C_23 
REMARK   11  A    between atoms: C_9  and  C_17 
REMARK   12  A    between atoms: C_9  and  C_18 
REMARK   13  A    between atoms: C_14  and  C_19 
REMARK   14  A    between atoms: C_14  and  C_20 
REMARK   15  A    between atoms: C_21  and  C_22 
ROOT
HETATM    1  O   UNL     1      28.447 -15.778 -14.325  1.00  0.00    -0.776 OA
HETATM    2  H   UNL     1      27.741 -16.102 -13.747  1.00  0.00     0.167 HD
ENDROOT
BRANCH   1   3
HETATM    3  C   UNL     1      29.514 -16.546 -14.630  1.00  0.00     0.139 C 
HETATM    4  O   UNL     1      29.353 -17.698 -15.008  1.00  0.00    -0.650 OA
BRANCH   3   5
HETATM    5  C   UNL     1      30.900 -15.980 -14.506  1.00  0.00     0.113 C 
BRANCH   5   6
HETATM    6  C   UNL     1      31.067 -15.225 -13.183  1.00  0.00     0.037 C 
BRANCH   6   7
HETATM    7  C   UNL     1      32.445 -15.453 -12.610  1.00  0.00    -0.030 C 
HETATM    8  C   UNL     1      33.515 -14.636 -12.717  1.00  0.00    -0.027 C 
BRANCH   8   9
HETATM    9  C   UNL     1      33.590 -13.305 -13.434  1.00  0.00     0.053 C 
BRANCH   9  10
HETATM   10  C   UNL     1      32.669 -12.298 -12.792  1.00  0.00    -0.027 C 
HETATM   11  C   UNL     1      31.908 -11.401 -13.446  1.00  0.00    -0.027 C 
BRANCH  11  12
HETATM   12  C   UNL     1      31.793 -11.278 -14.943  1.00  0.00     0.053 C 
BRANCH  12  13
HETATM   13  C   UNL     1      30.869 -12.332 -15.500  1.00  0.00    -0.027 C 
HETATM   14  C   UNL     1      29.525 -12.338 -15.434  1.00  0.00    -0.027 C 
BRANCH  14  15
HETATM   15  C   UNL     1      28.667 -11.313 -14.742  1.00  0.00     0.053 C 
BRANCH  15  16
HETATM   16  C   UNL     1      27.524 -12.026 -14.054  1.00  0.00    -0.027 C 
HETATM   17  C   UNL     1      27.551 -12.700 -12.886  1.00  0.00    -0.027 C 
BRANCH  17  18
HETATM   18  C   UNL     1      28.732 -12.887 -11.971  1.00  0.00     0.053 C 
BRANCH  18  19
HETATM   19  C   UNL     1      28.842 -11.736 -11.000  1.00  0.00    -0.027 C 
HETATM   20  C   UNL     1      28.432 -11.704  -9.715  1.00  0.00    -0.027 C 
BRANCH  20  21
HETATM   21  C   UNL     1      27.816 -12.834  -8.928  1.00  0.00     0.053 C 
BRANCH  21  22
HETATM   22  C   UNL     1      28.822 -13.437  -7.975  1.00  0.00    -0.027 C 
HETATM   23  C   UNL     1      29.708 -14.418  -8.238  1.00  0.00    -0.031 C 
BRANCH  23  24
HETATM   24  C   UNL     1      29.877 -15.147  -9.546  1.00  0.00     0.022 C 
HETATM   25  C   UNL     1      29.379 -16.585  -9.480  1.00  0.00     0.009 C 
ENDBRANCH  23  24
ENDBRANCH  21  22
ENDBRANCH  20  21
ENDBRANCH  18  19
ENDBRANCH  17  18
ENDBRANCH  15  16
ENDBRANCH  14  15
ENDBRANCH  12  13
ENDBRANCH  11  12
ENDBRANCH   9  10
ENDBRANCH   8   9
ENDBRANCH   6   7
ENDBRANCH   5   6
ENDBRANCH   3   5
ENDBRANCH   1   3
TORSDOF 15
ENDMDL
MODEL 5
REMARK VINA RESULT:      -4.4      9.858     12.727
REMARK  15 active torsions:
REMARK  status: ('A' for Active; 'I' for Inactive)
REMARK    1  A    between atoms: O_1  and  C_23 
REMARK    2  A    between atoms: C_3  and  C_7 
REMARK    3  A    between atoms: C_3  and  C_8 
REMARK    4  A    between atoms: C_4  and  C_10 
REMARK    5  A    between atoms: C_4  and  C_11 
REMARK    6  A    between atoms: C_5  and  C_12 
REMARK    7  A    between atoms: C_5  and  C_13 
REMARK    8  A    between atoms: C_6  and  C_15 
REMARK    9  A    between atoms: C_6  and  C_16 
REMARK   10  A    between atoms: C_7  and  C_23 
REMARK   11  A    between atoms: C_9  and  C_17 
REMARK   12  A    between atoms: C_9  and  C_18 
REMARK   13  A    between atoms: C_14  and  C_19 
REMARK   14  A    between atoms: C_14  and  C_20 
REMARK   15  A    between atoms: C_21  and  C_22 
ROOT
HETATM    1  O   UNL     1      46.010 -19.166 -12.118  1.00  0.00    -0.776 OA
HETATM    2  H   UNL     1      45.329 -19.572 -12.672  1.00  0.00     0.167 HD
ENDROOT
BRANCH   1   3
HETATM    3  C   UNL     1      46.193 -17.828 -12.093  1.00  0.00     0.139 C 
HETATM    4  O   UNL     1      47.234 -17.360 -11.655  1.00  0.00    -0.650 OA
BRANCH   3   5
HETATM    5  C   UNL     1      45.114 -16.919 -12.609  1.00  0.00     0.113 C 
BRANCH   5   6
HETATM    6  C   UNL     1      43.845 -17.036 -11.756  1.00  0.00     0.037 C 
BRANCH   6   7
HETATM    7  C   UNL     1      42.897 -15.900 -12.053  1.00  0.00    -0.030 C 
HETATM    8  C   UNL     1      41.924 -15.878 -12.989  1.00  0.00    -0.027 C 
BRANCH   8   9
HETATM    9  C   UNL     1      41.552 -16.980 -13.957  1.00  0.00     0.053 C 
BRANCH   9  10
HETATM   10  C   UNL     1      42.436 -16.943 -15.178  1.00  0.00    -0.027 C 
HETATM   11  C   UNL     1      42.226 -16.198 -16.278  1.00  0.00    -0.027 C 
BRANCH  11  12
HETATM   12  C   UNL     1      41.097 -15.219 -16.468  1.00  0.00     0.053 C 
BRANCH  12  13
HETATM   13  C   UNL     1      40.940 -14.854 -17.923  1.00  0.00    -0.027 C 
HETATM   14  C   UNL     1      40.185 -13.859 -18.425  1.00  0.00    -0.027 C 
BRANCH  14  15
HETATM   15  C   UNL     1      39.300 -12.932 -17.634  1.00  0.00     0.053 C 
BRANCH  15  16
HETATM   16  C   UNL     1      40.116 -11.731 -17.213  1.00  0.00    -0.027 C 
HETATM   17  C   UNL     1      40.411 -11.327 -15.960  1.00  0.00    -0.027 C 
BRANCH  17  18
HETATM   18  C   UNL     1      40.011 -11.995 -14.672  1.00  0.00     0.053 C 
BRANCH  18  19
HETATM   19  C   UNL     1      41.135 -11.929 -13.664  1.00  0.00    -0.027 C 
HETATM   20  C   UNL     1      41.051 -12.091 -12.328  1.00  0.00    -0.027 C 
BRANCH  20  21
HETATM   21  C   UNL     1      39.818 -12.434 -11.529  1.00  0.00     0.053 C 
BRANCH  21  22
HETATM   22  C   UNL     1      40.078 -13.609 -10.616  1.00  0.00    -0.027 C 
HETATM   23  C   UNL     1      40.100 -13.606  -9.269  1.00  0.00    -0.031 C 
BRANCH  23  24
HETATM   24  C   UNL     1      39.886 -12.415  -8.371  1.00  0.00     0.022 C 
HETATM   25  C   UNL     1      41.194 -11.851  -7.829  1.00  0.00     0.009 C 
ENDBRANCH  23  24
ENDBRANCH  21  22
ENDBRANCH  20  21
ENDBRANCH  18  19
ENDBRANCH  17  18
ENDBRANCH  15  16
ENDBRANCH  14  15
ENDBRANCH  12  13
ENDBRANCH  11  12
ENDBRANCH   9  10
ENDBRANCH   8   9
ENDBRANCH   6   7
ENDBRANCH   5   6
ENDBRANCH   3   5
ENDBRANCH   1   3
TORSDOF 15
ENDMDL
MODEL 6
REMARK VINA RESULT:      -4.4      5.760      8.291
REMARK  15 active torsions:
REMARK  status: ('A' for Active; 'I' for Inactive)
REMARK    1  A    between atoms: O_1  and  C_23 
REMARK    2  A    between atoms: C_3  and  C_7 
REMARK    3  A    between atoms: C_3  and  C_8 
REMARK    4  A    between atoms: C_4  and  C_10 
REMARK    5  A    between atoms: C_4  and  C_11 
REMARK    6  A    between atoms: C_5  and  C_12 
REMARK    7  A    between atoms: C_5  and  C_13 
REMARK    8  A    between atoms: C_6  and  C_15 
REMARK    9  A    between atoms: C_6  and  C_16 
REMARK   10  A    between atoms: C_7  and  C_23 
REMARK   11  A    between atoms: C_9  and  C_17 
REMARK   12  A    between atoms: C_9  and  C_18 
REMARK   13  A    between atoms: C_14  and  C_19 
REMARK   14  A    between atoms: C_14  and  C_20 
REMARK   15  A    between atoms: C_21  and  C_22 
ROOT
HETATM    1  O   UNL     1      27.477 -14.747  -4.628  1.00  0.00    -0.776 OA
HETATM    2  H   UNL     1      28.410 -14.972  -4.508  1.00  0.00     0.167 HD
ENDROOT
BRANCH   1   3
HETATM    3  C   UNL     1      27.026 -13.488  -4.439  1.00  0.00     0.139 C 
HETATM    4  O   UNL     1      25.972 -13.297  -3.850  1.00  0.00    -0.650 OA
BRANCH   3   5
HETATM    5  C   UNL     1      27.827 -12.325  -4.951  1.00  0.00     0.113 C 
BRANCH   5   6
HETATM    6  C   UNL     1      29.280 -12.408  -4.471  1.00  0.00     0.037 C 
BRANCH   6   7
HETATM    7  C   UNL     1      30.156 -11.464  -5.261  1.00  0.00    -0.030 C 
HETATM    8  C   UNL     1      31.491 -11.304  -5.142  1.00  0.00    -0.027 C 
BRANCH   8   9
HETATM    9  C   UNL     1      32.425 -12.026  -4.195  1.00  0.00     0.053 C 
BRANCH   9  10
HETATM   10  C   UNL     1      33.346 -11.053  -3.503  1.00  0.00    -0.027 C 
HETATM   11  C   UNL     1      34.507 -10.584  -3.995  1.00  0.00    -0.027 C 
BRANCH  11  12
HETATM   12  C   UNL     1      35.071 -10.902  -5.355  1.00  0.00     0.053 C 
BRANCH  12  13
HETATM   13  C   UNL     1      34.799  -9.780  -6.327  1.00  0.00    -0.027 C 
HETATM   14  C   UNL     1      34.321  -9.902  -7.579  1.00  0.00    -0.027 C 
BRANCH  14  15
HETATM   15  C   UNL     1      34.005 -11.192  -8.287  1.00  0.00     0.053 C 
BRANCH  15  16
HETATM   16  C   UNL     1      32.810 -10.967  -9.187  1.00  0.00    -0.027 C 
HETATM   17  C   UNL     1      31.744 -11.773  -9.366  1.00  0.00    -0.027 C 
BRANCH  17  18
HETATM   18  C   UNL     1      31.478 -13.092  -8.691  1.00  0.00     0.053 C 
BRANCH  18  19
HETATM   19  C   UNL     1      30.014 -13.226  -8.339  1.00  0.00    -0.027 C 
HETATM   20  C   UNL     1      29.399 -14.285  -7.773  1.00  0.00    -0.027 C 
BRANCH  20  21
HETATM   21  C   UNL     1      30.041 -15.568  -7.308  1.00  0.00     0.053 C 
BRANCH  21  22
HETATM   22  C   UNL     1      30.639 -15.402  -5.930  1.00  0.00    -0.027 C 
HETATM   23  C   UNL     1      31.947 -15.368  -5.608  1.00  0.00    -0.031 C 
BRANCH  23  24
HETATM   24  C   UNL     1      33.108 -15.509  -6.556  1.00  0.00     0.022 C 
HETATM   25  C   UNL     1      34.140 -14.402  -6.383  1.00  0.00     0.009 C 
ENDBRANCH  23  24
ENDBRANCH  21  22
ENDBRANCH  20  21
ENDBRANCH  18  19
ENDBRANCH  17  18
ENDBRANCH  15  16
ENDBRANCH  14  15
ENDBRANCH  12  13
ENDBRANCH  11  12
ENDBRANCH   9  10
ENDBRANCH   8   9
ENDBRANCH   6   7
ENDBRANCH   5   6
ENDBRANCH   3   5
ENDBRANCH   1   3
TORSDOF 15
ENDMDL
MODEL 7
REMARK VINA RESULT:      -4.4      2.724      4.990
REMARK  15 active torsions:
REMARK  status: ('A' for Active; 'I' for Inactive)
REMARK    1  A    between atoms: O_1  and  C_23 
REMARK    2  A    between atoms: C_3  and  C_7 
REMARK    3  A    between atoms: C_3  and  C_8 
REMARK    4  A    between atoms: C_4  and  C_10 
REMARK    5  A    between atoms: C_4  and  C_11 
REMARK    6  A    between atoms: C_5  and  C_12 
REMARK    7  A    between atoms: C_5  and  C_13 
REMARK    8  A    between atoms: C_6  and  C_15 
REMARK    9  A    between atoms: C_6  and  C_16 
REMARK   10  A    between atoms: C_7  and  C_23 
REMARK   11  A    between atoms: C_9  and  C_17 
REMARK   12  A    between atoms: C_9  and  C_18 
REMARK   13  A    between atoms: C_14  and  C_19 
REMARK   14  A    between atoms: C_14  and  C_20 
REMARK   15  A    between atoms: C_21  and  C_22 
ROOT
HETATM    1  O   UNL     1      27.677 -14.572 -14.120  1.00  0.00    -0.776 OA
HETATM    2  H   UNL     1      28.160 -14.745 -14.940  1.00  0.00     0.167 HD
ENDROOT
BRANCH   1   3
HETATM    3  C   UNL     1      27.107 -13.372 -13.878  1.00  0.00     0.139 C 
HETATM    4  O   UNL     1      25.924 -13.305 -13.579  1.00  0.00    -0.650 OA
BRANCH   3   5
HETATM    5  C   UNL     1      27.933 -12.121 -13.976  1.00  0.00     0.113 C 
BRANCH   5   6
HETATM    6  C   UNL     1      29.056 -12.286 -15.006  1.00  0.00     0.037 C 
BRANCH   6   7
HETATM    7  C   UNL     1      30.394 -11.947 -14.394  1.00  0.00    -0.030 C 
HETATM    8  C   UNL     1      31.169 -12.754 -13.638  1.00  0.00    -0.027 C 
BRANCH   8   9
HETATM    9  C   UNL     1      30.884 -14.182 -13.224  1.00  0.00     0.053 C 
BRANCH   9  10
HETATM   10  C   UNL     1      32.150 -15.001 -13.217  1.00  0.00    -0.027 C 
HETATM   11  C   UNL     1      33.013 -15.104 -12.191  1.00  0.00    -0.027 C 
BRANCH  11  12
HETATM   12  C   UNL     1      32.843 -14.465 -10.838  1.00  0.00     0.053 C 
BRANCH  12  13
HETATM   13  C   UNL     1      33.432 -13.076 -10.821  1.00  0.00    -0.027 C 
HETATM   14  C   UNL     1      32.926 -11.997 -10.196  1.00  0.00    -0.027 C 
BRANCH  14  15
HETATM   15  C   UNL     1      31.635 -11.943  -9.423  1.00  0.00     0.053 C 
BRANCH  15  16
HETATM   16  C   UNL     1      30.586 -11.276 -10.284  1.00  0.00    -0.027 C 
HETATM   17  C   UNL     1      29.365 -11.742 -10.614  1.00  0.00    -0.027 C 
BRANCH  17  18
HETATM   18  C   UNL     1      28.742 -13.043 -10.183  1.00  0.00     0.053 C 
BRANCH  18  19
HETATM   19  C   UNL     1      27.670 -12.803  -9.145  1.00  0.00    -0.027 C 
HETATM   20  C   UNL     1      27.826 -12.714  -7.809  1.00  0.00    -0.027 C 
BRANCH  20  21
HETATM   21  C   UNL     1      29.121 -12.780  -7.037  1.00  0.00     0.053 C 
BRANCH  21  22
HETATM   22  C   UNL     1      29.250 -14.101  -6.315  1.00  0.00    -0.027 C 
HETATM   23  C   UNL     1      29.809 -15.234  -6.781  1.00  0.00    -0.031 C 
BRANCH  23  24
HETATM   24  C   UNL     1      30.416 -15.440  -8.144  1.00  0.00     0.022 C 
HETATM   25  C   UNL     1      29.536 -16.290  -9.052  1.00  0.00     0.009 C 
ENDBRANCH  23  24
ENDBRANCH  21  22
ENDBRANCH  20  21
ENDBRANCH  18  19
ENDBRANCH  17  18
ENDBRANCH  15  16
ENDBRANCH  14  15
ENDBRANCH  12  13
ENDBRANCH  11  12
ENDBRANCH   9  10
ENDBRANCH   8   9
ENDBRANCH   6   7
ENDBRANCH   5   6
ENDBRANCH   3   5
ENDBRANCH   1   3
TORSDOF 15
ENDMDL
MODEL 8
REMARK VINA RESULT:      -4.4      1.757      2.330
REMARK  15 active torsions:
REMARK  status: ('A' for Active; 'I' for Inactive)
REMARK    1  A    between atoms: O_1  and  C_23 
REMARK    2  A    between atoms: C_3  and  C_7 
REMARK    3  A    between atoms: C_3  and  C_8 
REMARK    4  A    between atoms: C_4  and  C_10 
REMARK    5  A    between atoms: C_4  and  C_11 
REMARK    6  A    between atoms: C_5  and  C_12 
REMARK    7  A    between atoms: C_5  and  C_13 
REMARK    8  A    between atoms: C_6  and  C_15 
REMARK    9  A    between atoms: C_6  and  C_16 
REMARK   10  A    between atoms: C_7  and  C_23 
REMARK   11  A    between atoms: C_9  and  C_17 
REMARK   12  A    between atoms: C_9  and  C_18 
REMARK   13  A    between atoms: C_14  and  C_19 
REMARK   14  A    between atoms: C_14  and  C_20 
REMARK   15  A    between atoms: C_21  and  C_22 
ROOT
HETATM    1  O   UNL     1      25.630 -14.273 -14.398  1.00  0.00    -0.776 OA
HETATM    2  H   UNL     1      25.806 -14.858 -15.148  1.00  0.00     0.167 HD
ENDROOT
BRANCH   1   3
HETATM    3  C   UNL     1      26.600 -13.498 -13.867  1.00  0.00     0.139 C 
HETATM    4  O   UNL     1      26.550 -13.176 -12.689  1.00  0.00    -0.650 OA
BRANCH   3   5
HETATM    5  C   UNL     1      27.741 -13.036 -14.728  1.00  0.00     0.113 C 
BRANCH   5   6
HETATM    6  C   UNL     1      28.803 -12.317 -13.889  1.00  0.00     0.037 C 
BRANCH   6   7
HETATM    7  C   UNL     1      29.928 -11.821 -14.766  1.00  0.00    -0.030 C 
HETATM    8  C   UNL     1      31.219 -11.647 -14.411  1.00  0.00    -0.027 C 
BRANCH   8   9
HETATM    9  C   UNL     1      31.845 -11.906 -13.057  1.00  0.00     0.053 C 
BRANCH   9  10
HETATM   10  C   UNL     1      33.336 -11.691 -13.106  1.00  0.00    -0.027 C 
HETATM   11  C   UNL     1      34.267 -12.536 -12.626  1.00  0.00    -0.027 C 
BRANCH  11  12
HETATM   12  C   UNL     1      33.991 -13.879 -12.003  1.00  0.00     0.053 C 
BRANCH  12  13
HETATM   13  C   UNL     1      34.931 -14.144 -10.854  1.00  0.00    -0.027 C 
HETATM   14  C   UNL     1      34.603 -14.232  -9.551  1.00  0.00    -0.027 C 
BRANCH  14  15
HETATM   15  C   UNL     1      33.229 -14.035  -8.968  1.00  0.00     0.053 C 
BRANCH  15  16
HETATM   16  C   UNL     1      32.453 -15.325  -9.121  1.00  0.00    -0.027 C 
HETATM   17  C   UNL     1      31.346 -15.543  -9.860  1.00  0.00    -0.027 C 
BRANCH  17  18
HETATM   18  C   UNL     1      30.625 -14.549 -10.733  1.00  0.00     0.053 C 
BRANCH  18  19
HETATM   19  C   UNL     1      29.730 -15.259 -11.722  1.00  0.00    -0.027 C 
HETATM   20  C   UNL     1      30.018 -15.593 -12.997  1.00  0.00    -0.027 C 
BRANCH  20  21
HETATM   21  C   UNL     1      31.325 -15.383 -13.719  1.00  0.00     0.053 C 
BRANCH  21  22
HETATM   22  C   UNL     1      31.121 -15.395 -15.216  1.00  0.00    -0.027 C 
HETATM   23  C   UNL     1      31.964 -14.929 -16.158  1.00  0.00    -0.031 C 
BRANCH  23  24
HETATM   24  C   UNL     1      33.298 -14.271 -15.921  1.00  0.00     0.022 C 
HETATM   25  C   UNL     1      34.350 -15.250 -15.415  1.00  0.00     0.009 C 
ENDBRANCH  23  24
ENDBRANCH  21  22
ENDBRANCH  20  21
ENDBRANCH  18  19
ENDBRANCH  17  18
ENDBRANCH  15  16
ENDBRANCH  14  15
ENDBRANCH  12  13
ENDBRANCH  11  12
ENDBRANCH   9  10
ENDBRANCH   8   9
ENDBRANCH   6   7
ENDBRANCH   5   6
ENDBRANCH   3   5
ENDBRANCH   1   3
TORSDOF 15
ENDMDL
MODEL 9
REMARK VINA RESULT:      -4.4      2.395      4.956
REMARK  15 active torsions:
REMARK  status: ('A' for Active; 'I' for Inactive)
REMARK    1  A    between atoms: O_1  and  C_23 
REMARK    2  A    between atoms: C_3  and  C_7 
REMARK    3  A    between atoms: C_3  and  C_8 
REMARK    4  A    between atoms: C_4  and  C_10 
REMARK    5  A    between atoms: C_4  and  C_11 
REMARK    6  A    between atoms: C_5  and  C_12 
REMARK    7  A    between atoms: C_5  and  C_13 
REMARK    8  A    between atoms: C_6  and  C_15 
REMARK    9  A    between atoms: C_6  and  C_16 
REMARK   10  A    between atoms: C_7  and  C_23 
REMARK   11  A    between atoms: C_9  and  C_17 
REMARK   12  A    between atoms: C_9  and  C_18 
REMARK   13  A    between atoms: C_14  and  C_19 
REMARK   14  A    between atoms: C_14  and  C_20 
REMARK   15  A    between atoms: C_21  and  C_22 
ROOT
HETATM    1  O   UNL     1      28.177 -15.276 -14.395  1.00  0.00    -0.776 OA
HETATM    2  H   UNL     1      27.990 -14.485 -13.872  1.00  0.00     0.167 HD
ENDROOT
BRANCH   1   3
HETATM    3  C   UNL     1      29.138 -16.152 -14.029  1.00  0.00     0.139 C 
HETATM    4  O   UNL     1      28.931 -17.355 -14.105  1.00  0.00    -0.650 OA
BRANCH   3   5
HETATM    5  C   UNL     1      30.460 -15.643 -13.530  1.00  0.00     0.113 C 
BRANCH   5   6
HETATM    6  C   UNL     1      30.338 -15.113 -12.097  1.00  0.00     0.037 C 
BRANCH   6   7
HETATM    7  C   UNL     1      29.928 -16.219 -11.154  1.00  0.00    -0.030 C 
HETATM    8  C   UNL     1      29.406 -16.080  -9.917  1.00  0.00    -0.027 C 
BRANCH   8   9
HETATM    9  C   UNL     1      29.108 -14.790  -9.182  1.00  0.00     0.053 C 
BRANCH   9  10
HETATM   10  C   UNL     1      29.798 -14.765  -7.842  1.00  0.00    -0.027 C 
HETATM   11  C   UNL     1      31.076 -14.405  -7.623  1.00  0.00    -0.027 C 
BRANCH  11  12
HETATM   12  C   UNL     1      32.035 -13.906  -8.671  1.00  0.00     0.053 C 
BRANCH  12  13
HETATM   13  C   UNL     1      32.140 -12.401  -8.632  1.00  0.00    -0.027 C 
HETATM   14  C   UNL     1      31.532 -11.532  -9.462  1.00  0.00    -0.027 C 
BRANCH  14  15
HETATM   15  C   UNL     1      30.658 -11.889 -10.635  1.00  0.00     0.053 C 
BRANCH  15  16
HETATM   16  C   UNL     1      29.244 -11.445 -10.334  1.00  0.00    -0.027 C 
HETATM   17  C   UNL     1      28.130 -11.683 -11.054  1.00  0.00    -0.027 C 
BRANCH  17  18
HETATM   18  C   UNL     1      28.024 -12.472 -12.332  1.00  0.00     0.053 C 
BRANCH  18  19
HETATM   19  C   UNL     1      27.925 -11.548 -13.523  1.00  0.00    -0.027 C 
HETATM   20  C   UNL     1      28.766 -11.471 -14.575  1.00  0.00    -0.027 C 
BRANCH  20  21
HETATM   21  C   UNL     1      29.978 -12.331 -14.836  1.00  0.00     0.053 C 
BRANCH  21  22
HETATM   22  C   UNL     1      31.148 -11.882 -13.992  1.00  0.00    -0.027 C 
HETATM   23  C   UNL     1      32.219 -11.171 -14.396  1.00  0.00    -0.031 C 
BRANCH  23  24
HETATM   24  C   UNL     1      32.495 -10.680 -15.793  1.00  0.00     0.022 C 
HETATM   25  C   UNL     1      33.452 -11.590 -16.552  1.00  0.00     0.009 C 
ENDBRANCH  23  24
ENDBRANCH  21  22
ENDBRANCH  20  21
ENDBRANCH  18  19
ENDBRANCH  17  18
ENDBRANCH  15  16
ENDBRANCH  14  15
ENDBRANCH  12  13
ENDBRANCH  11  12
ENDBRANCH   9  10
ENDBRANCH   8   9
ENDBRANCH   6   7
ENDBRANCH   5   6
ENDBRANCH   3   5
ENDBRANCH   1   3
TORSDOF 15
ENDMDL
MODEL 10
REMARK VINA RESULT:      -4.3      2.174      5.087
REMARK  15 active torsions:
REMARK  status: ('A' for Active; 'I' for Inactive)
REMARK    1  A    between atoms: O_1  and  C_23 
REMARK    2  A    between atoms: C_3  and  C_7 
REMARK    3  A    between atoms: C_3  and  C_8 
REMARK    4  A    between atoms: C_4  and  C_10 
REMARK    5  A    between atoms: C_4  and  C_11 
REMARK    6  A    between atoms: C_5  and  C_12 
REMARK    7  A    between atoms: C_5  and  C_13 
REMARK    8  A    between atoms: C_6  and  C_15 
REMARK    9  A    between atoms: C_6  and  C_16 
REMARK   10  A    between atoms: C_7  and  C_23 
REMARK   11  A    between atoms: C_9  and  C_17 
REMARK   12  A    between atoms: C_9  and  C_18 
REMARK   13  A    between atoms: C_14  and  C_19 
REMARK   14  A    between atoms: C_14  and  C_20 
REMARK   15  A    between atoms: C_21  and  C_22 
ROOT
HETATM    1  O   UNL     1      27.424 -13.760 -15.133  1.00  0.00    -0.776 OA
HETATM    2  H   UNL     1      28.390 -13.785 -15.091  1.00  0.00     0.167 HD
ENDROOT
BRANCH   1   3
HETATM    3  C   UNL     1      26.683 -13.389 -14.067  1.00  0.00     0.139 C 
HETATM    4  O   UNL     1      25.512 -13.735 -13.985  1.00  0.00    -0.650 OA
BRANCH   3   5
HETATM    5  C   UNL     1      27.301 -12.555 -12.982  1.00  0.00     0.113 C 
BRANCH   5   6
HETATM    6  C   UNL     1      28.791 -12.880 -12.824  1.00  0.00     0.037 C 
BRANCH   6   7
HETATM    7  C   UNL     1      29.214 -12.751 -11.380  1.00  0.00    -0.030 C 
HETATM    8  C   UNL     1      29.597 -13.747 -10.554  1.00  0.00    -0.027 C 
BRANCH   8   9
HETATM    9  C   UNL     1      29.693 -15.224 -10.874  1.00  0.00     0.053 C 
BRANCH   9  10
HETATM   10  C   UNL     1      30.793 -15.875 -10.073  1.00  0.00    -0.027 C 
HETATM   11  C   UNL     1      32.112 -15.676 -10.244  1.00  0.00    -0.027 C 
BRANCH  11  12
HETATM   12  C   UNL     1      32.732 -14.720 -11.229  1.00  0.00     0.053 C 
BRANCH  12  13
HETATM   13  C   UNL     1      33.231 -15.452 -12.449  1.00  0.00    -0.027 C 
HETATM   14  C   UNL     1      32.643 -15.488 -13.660  1.00  0.00    -0.027 C 
BRANCH  14  15
HETATM   15  C   UNL     1      31.336 -14.841 -14.031  1.00  0.00     0.053 C 
BRANCH  15  16
HETATM   16  C   UNL     1      30.464 -15.873 -14.712  1.00  0.00    -0.027 C 
HETATM   17  C   UNL     1      29.993 -15.856 -15.975  1.00  0.00    -0.027 C 
BRANCH  17  18
HETATM   18  C   UNL     1      30.241 -14.805 -17.025  1.00  0.00     0.053 C 
BRANCH  18  19
HETATM   19  C   UNL     1      31.359 -15.227 -17.949  1.00  0.00    -0.027 C 
HETATM   20  C   UNL     1      32.644 -14.818 -17.923  1.00  0.00    -0.027 C 
BRANCH  20  21
HETATM   21  C   UNL     1      33.281 -13.881 -16.927  1.00  0.00     0.053 C 
BRANCH  21  22
HETATM   22  C   UNL     1      33.113 -12.442 -17.358  1.00  0.00    -0.027 C 
HETATM   23  C   UNL     1      32.373 -11.492 -16.754  1.00  0.00    -0.031 C 
BRANCH  23  24
HETATM   24  C   UNL     1      31.529 -11.661 -15.518  1.00  0.00     0.022 C 
HETATM   25  C   UNL     1      32.220 -11.141 -14.264  1.00  0.00     0.009 C 
ENDBRANCH  23  24
ENDBRANCH  21  22
ENDBRANCH  20  21
ENDBRANCH  18  19
ENDBRANCH  17  18
ENDBRANCH  15  16
ENDBRANCH  14  15
ENDBRANCH  12  13
ENDBRANCH  11  12
ENDBRANCH   9  10
ENDBRANCH   8   9
ENDBRANCH   6   7
ENDBRANCH   5   6
ENDBRANCH   3   5
ENDBRANCH   1   3
TORSDOF 15
ENDMDL
MODEL 11
REMARK VINA RESULT:      -4.3      3.031      5.123
REMARK  15 active torsions:
REMARK  status: ('A' for Active; 'I' for Inactive)
REMARK    1  A    between atoms: O_1  and  C_23 
REMARK    2  A    between atoms: C_3  and  C_7 
REMARK    3  A    between atoms: C_3  and  C_8 
REMARK    4  A    between atoms: C_4  and  C_10 
REMARK    5  A    between atoms: C_4  and  C_11 
REMARK    6  A    between atoms: C_5  and  C_12 
REMARK    7  A    between atoms: C_5  and  C_13 
REMARK    8  A    between atoms: C_6  and  C_15 
REMARK    9  A    between atoms: C_6  and  C_16 
REMARK   10  A    between atoms: C_7  and  C_23 
REMARK   11  A    between atoms: C_9  and  C_17 
REMARK   12  A    between atoms: C_9  and  C_18 
REMARK   13  A    between atoms: C_14  and  C_19 
REMARK   14  A    between atoms: C_14  and  C_20 
REMARK   15  A    between atoms: C_21  and  C_22 
ROOT
HETATM    1  O   UNL     1      29.450 -15.938 -16.000  1.00  0.00    -0.776 OA
HETATM    2  H   UNL     1      30.256 -16.065 -16.519  1.00  0.00     0.167 HD
ENDROOT
BRANCH   1   3
HETATM    3  C   UNL     1      29.314 -14.895 -15.154  1.00  0.00     0.139 C 
HETATM    4  O   UNL     1      28.305 -14.205 -15.188  1.00  0.00    -0.650 OA
BRANCH   3   5
HETATM    5  C   UNL     1      30.406 -14.586 -14.169  1.00  0.00     0.113 C 
BRANCH   5   6
HETATM    6  C   UNL     1      30.087 -13.311 -13.381  1.00  0.00     0.037 C 
BRANCH   6   7
HETATM    7  C   UNL     1      30.933 -12.159 -13.868  1.00  0.00    -0.030 C 
HETATM    8  C   UNL     1      32.037 -11.655 -13.277  1.00  0.00    -0.027 C 
BRANCH   8   9
HETATM    9  C   UNL     1      32.688 -12.120 -11.992  1.00  0.00     0.053 C 
BRANCH   9  10
HETATM   10  C   UNL     1      32.449 -11.130 -10.880  1.00  0.00    -0.027 C 
HETATM   11  C   UNL     1      31.369 -11.094 -10.079  1.00  0.00    -0.027 C 
BRANCH  11  12
HETATM   12  C   UNL     1      30.226 -12.075 -10.109  1.00  0.00     0.053 C 
BRANCH  12  13
HETATM   13  C   UNL     1      28.899 -11.357 -10.076  1.00  0.00    -0.027 C 
HETATM   14  C   UNL     1      27.873 -11.604  -9.241  1.00  0.00    -0.027 C 
BRANCH  14  15
HETATM   15  C   UNL     1      27.822 -12.685  -8.194  1.00  0.00     0.053 C 
BRANCH  15  16
HETATM   16  C   UNL     1      28.355 -12.123  -6.895  1.00  0.00    -0.027 C 
HETATM   17  C   UNL     1      29.496 -12.453  -6.256  1.00  0.00    -0.027 C 
BRANCH  17  18
HETATM   18  C   UNL     1      30.529 -13.455  -6.699  1.00  0.00     0.053 C 
BRANCH  18  19
HETATM   19  C   UNL     1      31.865 -12.783  -6.918  1.00  0.00    -0.027 C 
HETATM   20  C   UNL     1      32.990 -13.336  -7.415  1.00  0.00    -0.027 C 
BRANCH  20  21
HETATM   21  C   UNL     1      33.164 -14.745  -7.924  1.00  0.00     0.053 C 
BRANCH  21  22
HETATM   22  C   UNL     1      32.949 -14.809  -9.418  1.00  0.00    -0.027 C 
HETATM   23  C   UNL     1      31.879 -15.306 -10.068  1.00  0.00    -0.031 C 
BRANCH  23  24
HETATM   24  C   UNL     1      30.659 -15.930  -9.441  1.00  0.00     0.022 C 
HETATM   25  C   UNL     1      29.366 -15.487 -10.115  1.00  0.00     0.009 C 
ENDBRANCH  23  24
ENDBRANCH  21  22
ENDBRANCH  20  21
ENDBRANCH  18  19
ENDBRANCH  17  18
ENDBRANCH  15  16
ENDBRANCH  14  15
ENDBRANCH  12  13
ENDBRANCH  11  12
ENDBRANCH   9  10
ENDBRANCH   8   9
ENDBRANCH   6   7
ENDBRANCH   5   6
ENDBRANCH   3   5
ENDBRANCH   1   3
TORSDOF 15
ENDMDL
MODEL 12
REMARK VINA RESULT:      -4.3      9.721     12.190
REMARK  15 active torsions:
REMARK  status: ('A' for Active; 'I' for Inactive)
REMARK    1  A    between atoms: O_1  and  C_23 
REMARK    2  A    between atoms: C_3  and  C_7 
REMARK    3  A    between atoms: C_3  and  C_8 
REMARK    4  A    between atoms: C_4  and  C_10 
REMARK    5  A    between atoms: C_4  and  C_11 
REMARK    6  A    between atoms: C_5  and  C_12 
REMARK    7  A    between atoms: C_5  and  C_13 
REMARK    8  A    between atoms: C_6  and  C_15 
REMARK    9  A    between atoms: C_6  and  C_16 
REMARK   10  A    between atoms: C_7  and  C_23 
REMARK   11  A    between atoms: C_9  and  C_17 
REMARK   12  A    between atoms: C_9  and  C_18 
REMARK   13  A    between atoms: C_14  and  C_19 
REMARK   14  A    between atoms: C_14  and  C_20 
REMARK   15  A    between atoms: C_21  and  C_22 
ROOT
HETATM    1  O   UNL     1      41.737 -10.926 -16.842  1.00  0.00    -0.776 OA
HETATM    2  H   UNL     1      41.422 -10.429 -16.074  1.00  0.00     0.167 HD
ENDROOT
BRANCH   1   3
HETATM    3  C   UNL     1      40.895 -11.662 -17.598  1.00  0.00     0.139 C 
HETATM    4  O   UNL     1      40.953 -11.598 -18.818  1.00  0.00    -0.650 OA
BRANCH   3   5
HETATM    5  C   UNL     1      39.890 -12.561 -16.936  1.00  0.00     0.113 C 
BRANCH   5   6
HETATM    6  C   UNL     1      39.833 -13.925 -17.633  1.00  0.00     0.037 C 
BRANCH   6   7
HETATM    7  C   UNL     1      41.071 -14.732 -17.327  1.00  0.00    -0.030 C 
HETATM    8  C   UNL     1      41.274 -15.534 -16.260  1.00  0.00    -0.027 C 
BRANCH   8   9
HETATM    9  C   UNL     1      40.316 -15.816 -15.123  1.00  0.00     0.053 C 
BRANCH   9  10
HETATM   10  C   UNL     1      40.414 -14.749 -14.062  1.00  0.00    -0.027 C 
HETATM   11  C   UNL     1      40.713 -14.955 -12.766  1.00  0.00    -0.027 C 
BRANCH  11  12
HETATM   12  C   UNL     1      41.061 -16.285 -12.150  1.00  0.00     0.053 C 
BRANCH  12  13
HETATM   13  C   UNL     1      42.457 -16.265 -11.580  1.00  0.00    -0.027 C 
HETATM   14  C   UNL     1      43.601 -16.498 -12.249  1.00  0.00    -0.027 C 
BRANCH  14  15
HETATM   15  C   UNL     1      43.718 -16.876 -13.702  1.00  0.00     0.053 C 
BRANCH  15  16
HETATM   16  C   UNL     1      43.939 -18.369 -13.794  1.00  0.00    -0.027 C 
HETATM   17  C   UNL     1      43.320 -19.250 -14.605  1.00  0.00    -0.027 C 
BRANCH  17  18
HETATM   18  C   UNL     1      42.264 -18.950 -15.637  1.00  0.00     0.053 C 
BRANCH  18  19
HETATM   19  C   UNL     1      42.497 -19.761 -16.890  1.00  0.00    -0.027 C 
HETATM   20  C   UNL     1      43.482 -19.606 -17.797  1.00  0.00    -0.027 C 
BRANCH  20  21
HETATM   21  C   UNL     1      44.620 -18.616 -17.744  1.00  0.00     0.053 C 
BRANCH  21  22
HETATM   22  C   UNL     1      44.122 -17.211 -17.991  1.00  0.00    -0.027 C 
HETATM   23  C   UNL     1      43.380 -16.780 -19.030  1.00  0.00    -0.031 C 
BRANCH  23  24
HETATM   24  C   UNL     1      42.896 -17.608 -20.192  1.00  0.00     0.022 C 
HETATM   25  C   UNL     1      41.377 -17.703 -20.247  1.00  0.00     0.009 C 
ENDBRANCH  23  24
ENDBRANCH  21  22
ENDBRANCH  20  21
ENDBRANCH  18  19
ENDBRANCH  17  18
ENDBRANCH  15  16
ENDBRANCH  14  15
ENDBRANCH  12  13
ENDBRANCH  11  12
ENDBRANCH   9  10
ENDBRANCH   8   9
ENDBRANCH   6   7
ENDBRANCH   5   6
ENDBRANCH   3   5
ENDBRANCH   1   3
TORSDOF 15
ENDMDL
MODEL 13
REMARK VINA RESULT:      -4.3      9.003     11.690
REMARK  15 active torsions:
REMARK  status: ('A' for Active; 'I' for Inactive)
REMARK    1  A    between atoms: O_1  and  C_23 
REMARK    2  A    between atoms: C_3  and  C_7 
REMARK    3  A    between atoms: C_3  and  C_8 
REMARK    4  A    between atoms: C_4  and  C_10 
REMARK    5  A    between atoms: C_4  and  C_11 
REMARK    6  A    between atoms: C_5  and  C_12 
REMARK    7  A    between atoms: C_5  and  C_13 
REMARK    8  A    between atoms: C_6  and  C_15 
REMARK    9  A    between atoms: C_6  and  C_16 
REMARK   10  A    between atoms: C_7  and  C_23 
REMARK   11  A    between atoms: C_9  and  C_17 
REMARK   12  A    between atoms: C_9  and  C_18 
REMARK   13  A    between atoms: C_14  and  C_19 
REMARK   14  A    between atoms: C_14  and  C_20 
REMARK   15  A    between atoms: C_21  and  C_22 
ROOT
HETATM    1  O   UNL     1      41.708 -10.725  -6.821  1.00  0.00    -0.776 OA
HETATM    2  H   UNL     1      41.908  -9.819  -6.547  1.00  0.00     0.167 HD
ENDROOT
BRANCH   1   3
HETATM    3  C   UNL     1      40.665 -11.404  -6.299  1.00  0.00     0.139 C 
HETATM    4  O   UNL     1      40.573 -11.549  -5.088  1.00  0.00    -0.650 OA
BRANCH   3   5
HETATM    5  C   UNL     1      39.616 -11.978  -7.209  1.00  0.00     0.113 C 
BRANCH   5   6
HETATM    6  C   UNL     1      40.201 -12.283  -8.593  1.00  0.00     0.037 C 
BRANCH   6   7
HETATM    7  C   UNL     1      39.134 -12.180  -9.656  1.00  0.00    -0.030 C 
HETATM    8  C   UNL     1      39.300 -12.318 -10.989  1.00  0.00    -0.027 C 
BRANCH   8   9
HETATM    9  C   UNL     1      40.586 -12.609 -11.732  1.00  0.00     0.053 C 
BRANCH   9  10
HETATM   10  C   UNL     1      40.640 -11.842 -13.030  1.00  0.00    -0.027 C 
HETATM   11  C   UNL     1      40.414 -12.353 -14.254  1.00  0.00    -0.027 C 
BRANCH  11  12
HETATM   12  C   UNL     1      40.006 -13.773 -14.547  1.00  0.00     0.053 C 
BRANCH  12  13
HETATM   13  C   UNL     1      39.400 -13.886 -15.923  1.00  0.00    -0.027 C 
HETATM   14  C   UNL     1      39.971 -14.443 -17.008  1.00  0.00    -0.027 C 
BRANCH  14  15
HETATM   15  C   UNL     1      41.357 -15.025 -17.081  1.00  0.00     0.053 C 
BRANCH  15  16
HETATM   16  C   UNL     1      41.271 -16.509 -16.799  1.00  0.00    -0.027 C 
HETATM   17  C   UNL     1      41.687 -17.169 -15.700  1.00  0.00    -0.027 C 
BRANCH  17  18
HETATM   18  C   UNL     1      42.326 -16.577 -14.471  1.00  0.00     0.053 C 
BRANCH  18  19
HETATM   19  C   UNL     1      43.700 -17.165 -14.249  1.00  0.00    -0.027 C 
HETATM   20  C   UNL     1      44.370 -17.269 -13.083  1.00  0.00    -0.027 C 
BRANCH  20  21
HETATM   21  C   UNL     1      43.879 -16.870 -11.713  1.00  0.00     0.053 C 
BRANCH  21  22
HETATM   22  C   UNL     1      42.896 -17.885 -11.178  1.00  0.00    -0.027 C 
HETATM   23  C   UNL     1      41.611 -17.673 -10.836  1.00  0.00    -0.031 C 
BRANCH  23  24
HETATM   24  C   UNL     1      40.871 -16.362 -10.895  1.00  0.00     0.022 C 
HETATM   25  C   UNL     1      40.913 -15.609  -9.571  1.00  0.00     0.009 C 
ENDBRANCH  23  24
ENDBRANCH  21  22
ENDBRANCH  20  21
ENDBRANCH  18  19
ENDBRANCH  17  18
ENDBRANCH  15  16
ENDBRANCH  14  15
ENDBRANCH  12  13
ENDBRANCH  11  12
ENDBRANCH   9  10
ENDBRANCH   8   9
ENDBRANCH   6   7
ENDBRANCH   5   6
ENDBRANCH   3   5
ENDBRANCH   1   3
TORSDOF 15
ENDMDL
MODEL 14
REMARK VINA RESULT:      -4.3      2.269      4.323
REMARK  15 active torsions:
REMARK  status: ('A' for Active; 'I' for Inactive)
REMARK    1  A    between atoms: O_1  and  C_23 
REMARK    2  A    between atoms: C_3  and  C_7 
REMARK    3  A    between atoms: C_3  and  C_8 
REMARK    4  A    between atoms: C_4  and  C_10 
REMARK    5  A    between atoms: C_4  and  C_11 
REMARK    6  A    between atoms: C_5  and  C_12 
REMARK    7  A    between atoms: C_5  and  C_13 
REMARK    8  A    between atoms: C_6  and  C_15 
REMARK    9  A    between atoms: C_6  and  C_16 
REMARK   10  A    between atoms: C_7  and  C_23 
REMARK   11  A    between atoms: C_9  and  C_17 
REMARK   12  A    between atoms: C_9  and  C_18 
REMARK   13  A    between atoms: C_14  and  C_19 
REMARK   14  A    between atoms: C_14  and  C_20 
REMARK   15  A    between atoms: C_21  and  C_22 
ROOT
HETATM    1  O   UNL     1      29.093 -16.705  -8.307  1.00  0.00    -0.776 OA
HETATM    2  H   UNL     1      29.903 -17.041  -7.898  1.00  0.00     0.167 HD
ENDROOT
BRANCH   1   3
HETATM    3  C   UNL     1      29.128 -15.980  -9.445  1.00  0.00     0.139 C 
HETATM    4  O   UNL     1      28.318 -15.081  -9.624  1.00  0.00    -0.650 OA
BRANCH   3   5
HETATM    5  C   UNL     1      30.166 -16.278 -10.489  1.00  0.00     0.113 C 
BRANCH   5   6
HETATM    6  C   UNL     1      30.473 -15.031 -11.327  1.00  0.00     0.037 C 
BRANCH   6   7
HETATM    7  C   UNL     1      30.559 -15.383 -12.793  1.00  0.00    -0.030 C 
HETATM    8  C   UNL     1      31.680 -15.491 -13.538  1.00  0.00    -0.027 C 
BRANCH   8   9
HETATM    9  C   UNL     1      33.110 -15.286 -13.086  1.00  0.00     0.053 C 
BRANCH   9  10
HETATM   10  C   UNL     1      33.600 -13.910 -13.463  1.00  0.00    -0.027 C 
HETATM   11  C   UNL     1      33.525 -12.811 -12.691  1.00  0.00    -0.027 C 
BRANCH  11  12
HETATM   12  C   UNL     1      32.990 -12.766 -11.284  1.00  0.00     0.053 C 
BRANCH  12  13
HETATM   13  C   UNL     1      32.540 -11.372 -10.924  1.00  0.00    -0.027 C 
HETATM   14  C   UNL     1      31.464 -11.041 -10.186  1.00  0.00    -0.027 C 
BRANCH  14  15
HETATM   15  C   UNL     1      30.456 -11.999  -9.608  1.00  0.00     0.053 C 
BRANCH  15  16
HETATM   16  C   UNL     1      29.071 -11.441  -9.847  1.00  0.00    -0.027 C 
HETATM   17  C   UNL     1      28.320 -11.535 -10.963  1.00  0.00    -0.027 C 
BRANCH  17  18
HETATM   18  C   UNL     1      28.679 -12.243 -12.243  1.00  0.00     0.053 C 
BRANCH  18  19
HETATM   19  C   UNL     1      27.460 -12.892 -12.855  1.00  0.00    -0.027 C 
HETATM   20  C   UNL     1      27.160 -13.006 -14.165  1.00  0.00    -0.027 C 
BRANCH  20  21
HETATM   21  C   UNL     1      28.003 -12.559 -15.333  1.00  0.00     0.053 C 
BRANCH  21  22
HETATM   22  C   UNL     1      29.075 -13.577 -15.643  1.00  0.00    -0.027 C 
HETATM   23  C   UNL     1      30.348 -13.334 -16.013  1.00  0.00    -0.031 C 
BRANCH  23  24
HETATM   24  C   UNL     1      30.980 -11.982 -16.217  1.00  0.00     0.022 C 
HETATM   25  C   UNL     1      31.235 -11.253 -14.904  1.00  0.00     0.009 C 
ENDBRANCH  23  24
ENDBRANCH  21  22
ENDBRANCH  20  21
ENDBRANCH  18  19
ENDBRANCH  17  18
ENDBRANCH  15  16
ENDBRANCH  14  15
ENDBRANCH  12  13
ENDBRANCH  11  12
ENDBRANCH   9  10
ENDBRANCH   8   9
ENDBRANCH   6   7
ENDBRANCH   5   6
ENDBRANCH   3   5
ENDBRANCH   1   3
TORSDOF 15
ENDMDL
MODEL 15
REMARK VINA RESULT:      -4.3      4.626      7.443
REMARK  15 active torsions:
REMARK  status: ('A' for Active; 'I' for Inactive)
REMARK    1  A    between atoms: O_1  and  C_23 
REMARK    2  A    between atoms: C_3  and  C_7 
REMARK    3  A    between atoms: C_3  and  C_8 
REMARK    4  A    between atoms: C_4  and  C_10 
REMARK    5  A    between atoms: C_4  and  C_11 
REMARK    6  A    between atoms: C_5  and  C_12 
REMARK    7  A    between atoms: C_5  and  C_13 
REMARK    8  A    between atoms: C_6  and  C_15 
REMARK    9  A    between atoms: C_6  and  C_16 
REMARK   10  A    between atoms: C_7  and  C_23 
REMARK   11  A    between atoms: C_9  and  C_17 
REMARK   12  A    between atoms: C_9  and  C_18 
REMARK   13  A    between atoms: C_14  and  C_19 
REMARK   14  A    between atoms: C_14  and  C_20 
REMARK   15  A    between atoms: C_21  and  C_22 
ROOT
HETATM    1  O   UNL     1      25.682 -14.200  -4.589  1.00  0.00    -0.776 OA
HETATM    2  H   UNL     1      25.197 -14.811  -4.018  1.00  0.00     0.167 HD
ENDROOT
BRANCH   1   3
HETATM    3  C   UNL     1      26.633 -13.378  -4.094  1.00  0.00     0.139 C 
HETATM    4  O   UNL     1      26.708 -13.184  -2.889  1.00  0.00    -0.650 OA
BRANCH   3   5
HETATM    5  C   UNL     1      27.598 -12.707  -5.028  1.00  0.00     0.113 C 
BRANCH   5   6
HETATM    6  C   UNL     1      28.758 -13.645  -5.384  1.00  0.00     0.037 C 
BRANCH   6   7
HETATM    7  C   UNL     1      29.890 -13.489  -4.397  1.00  0.00    -0.030 C 
HETATM    8  C   UNL     1      30.766 -12.465  -4.321  1.00  0.00    -0.027 C 
BRANCH   8   9
HETATM    9  C   UNL     1      30.824 -11.234  -5.201  1.00  0.00     0.053 C 
BRANCH   9  10
HETATM   10  C   UNL     1      32.195 -11.073  -5.809  1.00  0.00    -0.027 C 
HETATM   11  C   UNL     1      32.683 -11.781  -6.843  1.00  0.00    -0.027 C 
BRANCH  11  12
HETATM   12  C   UNL     1      31.928 -12.826  -7.622  1.00  0.00     0.053 C 
BRANCH  12  13
HETATM   13  C   UNL     1      30.802 -12.202  -8.408  1.00  0.00    -0.027 C 
HETATM   14  C   UNL     1      30.867 -11.733  -9.668  1.00  0.00    -0.027 C 
BRANCH  14  15
HETATM   15  C   UNL     1      32.096 -11.690 -10.537  1.00  0.00     0.053 C 
BRANCH  15  16
HETATM   16  C   UNL     1      32.745 -10.332 -10.384  1.00  0.00    -0.027 C 
HETATM   17  C   UNL     1      33.989 -10.053  -9.944  1.00  0.00    -0.027 C 
BRANCH  17  18
HETATM   18  C   UNL     1      35.045 -11.039  -9.516  1.00  0.00     0.053 C 
BRANCH  18  19
HETATM   19  C   UNL     1      35.753 -11.618 -10.718  1.00  0.00    -0.027 C 
HETATM   20  C   UNL     1      35.751 -12.901 -11.133  1.00  0.00    -0.027 C 
BRANCH  20  21
HETATM   21  C   UNL     1      34.993 -14.053 -10.522  1.00  0.00     0.053 C 
BRANCH  21  22
HETATM   22  C   UNL     1      33.990 -14.617 -11.502  1.00  0.00    -0.027 C 
HETATM   23  C   UNL     1      32.854 -15.281 -11.215  1.00  0.00    -0.031 C 
BRANCH  23  24
HETATM   24  C   UNL     1      32.340 -15.626  -9.841  1.00  0.00     0.022 C 
HETATM   25  C   UNL     1      30.820 -15.728  -9.796  1.00  0.00     0.009 C 
ENDBRANCH  23  24
ENDBRANCH  21  22
ENDBRANCH  20  21
ENDBRANCH  18  19
ENDBRANCH  17  18
ENDBRANCH  15  16
ENDBRANCH  14  15
ENDBRANCH  12  13
ENDBRANCH  11  12
ENDBRANCH   9  10
ENDBRANCH   8   9
ENDBRANCH   6   7
ENDBRANCH   5   6
ENDBRANCH   3   5
ENDBRANCH   1   3
TORSDOF 15
ENDMDL
MODEL 16
REMARK VINA RESULT:      -4.3      2.086      4.826
REMARK  15 active torsions:
REMARK  status: ('A' for Active; 'I' for Inactive)
REMARK    1  A    between atoms: O_1  and  C_23 
REMARK    2  A    between atoms: C_3  and  C_7 
REMARK    3  A    between atoms: C_3  and  C_8 
REMARK    4  A    between atoms: C_4  and  C_10 
REMARK    5  A    between atoms: C_4  and  C_11 
REMARK    6  A    between atoms: C_5  and  C_12 
REMARK    7  A    between atoms: C_5  and  C_13 
REMARK    8  A    between atoms: C_6  and  C_15 
REMARK    9  A    between atoms: C_6  and  C_16 
REMARK   10  A    between atoms: C_7  and  C_23 
REMARK   11  A    between atoms: C_9  and  C_17 
REMARK   12  A    between atoms: C_9  and  C_18 
REMARK   13  A    between atoms: C_14  and  C_19 
REMARK   14  A    between atoms: C_14  and  C_20 
REMARK   15  A    between atoms: C_21  and  C_22 
ROOT
HETATM    1  O   UNL     1      27.389 -12.081  -8.910  1.00  0.00    -0.776 OA
HETATM    2  H   UNL     1      26.500 -11.831  -8.623  1.00  0.00     0.167 HD
ENDROOT
BRANCH   1   3
HETATM    3  C   UNL     1      27.603 -13.190  -9.651  1.00  0.00     0.139 C 
HETATM    4  O   UNL     1      26.842 -14.143  -9.561  1.00  0.00    -0.650 OA
BRANCH   3   5
HETATM    5  C   UNL     1      28.777 -13.246 -10.587  1.00  0.00     0.113 C 
BRANCH   5   6
HETATM    6  C   UNL     1      28.606 -12.249 -11.739  1.00  0.00     0.037 C 
BRANCH   6   7
HETATM    7  C   UNL     1      27.492 -12.686 -12.660  1.00  0.00    -0.030 C 
HETATM    8  C   UNL     1      27.411 -12.478 -13.991  1.00  0.00    -0.027 C 
BRANCH   8   9
HETATM    9  C   UNL     1      28.410 -11.761 -14.875  1.00  0.00     0.053 C 
BRANCH   9  10
HETATM   10  C   UNL     1      28.208 -12.131 -16.322  1.00  0.00    -0.027 C 
HETATM   11  C   UNL     1      29.025 -12.908 -17.056  1.00  0.00    -0.027 C 
BRANCH  11  12
HETATM   12  C   UNL     1      30.263 -13.599 -16.548  1.00  0.00     0.053 C 
BRANCH  12  13
HETATM   13  C   UNL     1      30.043 -15.087 -16.440  1.00  0.00    -0.027 C 
HETATM   14  C   UNL     1      29.828 -15.788 -15.311  1.00  0.00    -0.027 C 
BRANCH  14  15
HETATM   15  C   UNL     1      29.811 -15.232 -13.912  1.00  0.00     0.053 C 
BRANCH  15  16
HETATM   16  C   UNL     1      31.228 -15.213 -13.385  1.00  0.00    -0.027 C 
HETATM   17  C   UNL     1      32.022 -14.143 -13.177  1.00  0.00    -0.027 C 
BRANCH  17  18
HETATM   18  C   UNL     1      31.674 -12.696 -13.404  1.00  0.00     0.053 C 
BRANCH  18  19
HETATM   19  C   UNL     1      32.480 -11.803 -12.489  1.00  0.00    -0.027 C 
HETATM   20  C   UNL     1      33.437 -10.919 -12.839  1.00  0.00    -0.027 C 
BRANCH  20  21
HETATM   21  C   UNL     1      33.889 -10.573 -14.236  1.00  0.00     0.053 C 
BRANCH  21  22
HETATM   22  C   UNL     1      35.088 -11.402 -14.635  1.00  0.00    -0.027 C 
HETATM   23  C   UNL     1      35.119 -12.416 -15.522  1.00  0.00    -0.031 C 
BRANCH  23  24
HETATM   24  C   UNL     1      33.952 -12.961 -16.303  1.00  0.00     0.022 C 
HETATM   25  C   UNL     1      33.907 -14.484 -16.297  1.00  0.00     0.009 C 
ENDBRANCH  23  24
ENDBRANCH  21  22
ENDBRANCH  20  21
ENDBRANCH  18  19
ENDBRANCH  17  18
ENDBRANCH  15  16
ENDBRANCH  14  15
ENDBRANCH  12  13
ENDBRANCH  11  12
ENDBRANCH   9  10
ENDBRANCH   8   9
ENDBRANCH   6   7
ENDBRANCH   5   6
ENDBRANCH   3   5
ENDBRANCH   1   3
TORSDOF 15
ENDMDL
MODEL 17
REMARK VINA RESULT:      -4.2      4.688      6.716
REMARK  15 active torsions:
REMARK  status: ('A' for Active; 'I' for Inactive)
REMARK    1  A    between atoms: O_1  and  C_23 
REMARK    2  A    between atoms: C_3  and  C_7 
REMARK    3  A    between atoms: C_3  and  C_8 
REMARK    4  A    between atoms: C_4  and  C_10 
REMARK    5  A    between atoms: C_4  and  C_11 
REMARK    6  A    between atoms: C_5  and  C_12 
REMARK    7  A    between atoms: C_5  and  C_13 
REMARK    8  A    between atoms: C_6  and  C_15 
REMARK    9  A    between atoms: C_6  and  C_16 
REMARK   10  A    between atoms: C_7  and  C_23 
REMARK   11  A    between atoms: C_9  and  C_17 
REMARK   12  A    between atoms: C_9  and  C_18 
REMARK   13  A    between atoms: C_14  and  C_19 
REMARK   14  A    between atoms: C_14  and  C_20 
REMARK   15  A    between atoms: C_21  and  C_22 
ROOT
HETATM    1  O   UNL     1      30.486 -16.874  -5.112  1.00  0.00    -0.776 OA
HETATM    2  H   UNL     1      30.273 -17.816  -5.167  1.00  0.00     0.167 HD
ENDROOT
BRANCH   1   3
HETATM    3  C   UNL     1      29.541 -15.955  -4.820  1.00  0.00     0.139 C 
HETATM    4  O   UNL     1      28.769 -16.144  -3.891  1.00  0.00    -0.650 OA
BRANCH   3   5
HETATM    5  C   UNL     1      29.445 -14.698  -5.638  1.00  0.00     0.113 C 
BRANCH   5   6
HETATM    6  C   UNL     1      30.798 -13.980  -5.700  1.00  0.00     0.037 C 
BRANCH   6   7
HETATM    7  C   UNL     1      30.660 -12.643  -6.387  1.00  0.00    -0.030 C 
HETATM    8  C   UNL     1      31.658 -11.807  -6.745  1.00  0.00    -0.027 C 
BRANCH   8   9
HETATM    9  C   UNL     1      33.145 -12.008  -6.545  1.00  0.00     0.053 C 
BRANCH   9  10
HETATM   10  C   UNL     1      33.865 -10.684  -6.510  1.00  0.00    -0.027 C 
HETATM   11  C   UNL     1      34.614 -10.172  -7.503  1.00  0.00    -0.027 C 
BRANCH  11  12
HETATM   12  C   UNL     1      34.823 -10.802  -8.856  1.00  0.00     0.053 C 
BRANCH  12  13
HETATM   13  C   UNL     1      34.118 -10.013  -9.931  1.00  0.00    -0.027 C 
HETATM   14  C   UNL     1      32.998 -10.373 -10.587  1.00  0.00    -0.027 C 
BRANCH  14  15
HETATM   15  C   UNL     1      32.246 -11.665 -10.414  1.00  0.00     0.053 C 
BRANCH  15  16
HETATM   16  C   UNL     1      30.813 -11.343 -10.051  1.00  0.00    -0.027 C 
HETATM   17  C   UNL     1      29.728 -12.134 -10.175  1.00  0.00    -0.027 C 
BRANCH  17  18
HETATM   18  C   UNL     1      29.688 -13.548 -10.693  1.00  0.00     0.053 C 
BRANCH  18  19
HETATM   19  C   UNL     1      29.420 -14.520  -9.568  1.00  0.00    -0.027 C 
HETATM   20  C   UNL     1      30.247 -15.473  -9.091  1.00  0.00    -0.027 C 
BRANCH  20  21
HETATM   21  C   UNL     1      31.661 -15.755  -9.536  1.00  0.00     0.053 C 
BRANCH  21  22
HETATM   22  C   UNL     1      32.651 -14.957  -8.720  1.00  0.00    -0.027 C 
HETATM   23  C   UNL     1      33.900 -14.600  -9.076  1.00  0.00    -0.031 C 
BRANCH  23  24
HETATM   24  C   UNL     1      34.596 -14.938 -10.369  1.00  0.00     0.022 C 
HETATM   25  C   UNL     1      35.273 -13.728 -11.000  1.00  0.00     0.009 C 
ENDBRANCH  23  24
ENDBRANCH  21  22
ENDBRANCH  20  21
ENDBRANCH  18  19
ENDBRANCH  17  18
ENDBRANCH  15  16
ENDBRANCH  14  15
ENDBRANCH  12  13
ENDBRANCH  11  12
ENDBRANCH   9  10
ENDBRANCH   8   9
ENDBRANCH   6   7
ENDBRANCH   5   6
ENDBRANCH   3   5
ENDBRANCH   1   3
TORSDOF 15
ENDMDL
MODEL 18
REMARK VINA RESULT:      -4.2     10.692     13.785
REMARK  15 active torsions:
REMARK  status: ('A' for Active; 'I' for Inactive)
REMARK    1  A    between atoms: O_1  and  C_23 
REMARK    2  A    between atoms: C_3  and  C_7 
REMARK    3  A    between atoms: C_3  and  C_8 
REMARK    4  A    between atoms: C_4  and  C_10 
REMARK    5  A    between atoms: C_4  and  C_11 
REMARK    6  A    between atoms: C_5  and  C_12 
REMARK    7  A    between atoms: C_5  and  C_13 
REMARK    8  A    between atoms: C_6  and  C_15 
REMARK    9  A    between atoms: C_6  and  C_16 
REMARK   10  A    between atoms: C_7  and  C_23 
REMARK   11  A    between atoms: C_9  and  C_17 
REMARK   12  A    between atoms: C_9  and  C_18 
REMARK   13  A    between atoms: C_14  and  C_19 
REMARK   14  A    between atoms: C_14  and  C_20 
REMARK   15  A    between atoms: C_21  and  C_22 
ROOT
HETATM    1  O   UNL     1      40.530 -22.252  -9.841  1.00  0.00    -0.776 OA
HETATM    2  H   UNL     1      39.872 -21.629 -10.179  1.00  0.00     0.167 HD
ENDROOT
BRANCH   1   3
HETATM    3  C   UNL     1      41.609 -21.829  -9.149  1.00  0.00     0.139 C 
HETATM    4  O   UNL     1      41.670 -22.007  -7.941  1.00  0.00    -0.650 OA
BRANCH   3   5
HETATM    5  C   UNL     1      42.735 -21.143  -9.869  1.00  0.00     0.113 C 
BRANCH   5   6
HETATM    6  C   UNL     1      42.240 -20.492 -11.165  1.00  0.00     0.037 C 
BRANCH   6   7
HETATM    7  C   UNL     1      43.147 -20.846 -12.319  1.00  0.00    -0.030 C 
HETATM    8  C   UNL     1      43.023 -20.446 -13.602  1.00  0.00    -0.027 C 
BRANCH   8   9
HETATM    9  C   UNL     1      41.951 -19.552 -14.190  1.00  0.00     0.053 C 
BRANCH   9  10
HETATM   10  C   UNL     1      42.020 -19.551 -15.696  1.00  0.00    -0.027 C 
HETATM   11  C   UNL     1      42.377 -18.506 -16.464  1.00  0.00    -0.027 C 
BRANCH  11  12
HETATM   12  C   UNL     1      42.830 -17.162 -15.957  1.00  0.00     0.053 C 
BRANCH  12  13
HETATM   13  C   UNL     1      41.795 -16.102 -16.241  1.00  0.00    -0.027 C 
HETATM   14  C   UNL     1      40.866 -15.637 -15.385  1.00  0.00    -0.027 C 
BRANCH  14  15
HETATM   15  C   UNL     1      40.639 -16.117 -13.976  1.00  0.00     0.053 C 
BRANCH  15  16
HETATM   16  C   UNL     1      41.444 -15.248 -13.036  1.00  0.00    -0.027 C 
HETATM   17  C   UNL     1      42.457 -15.619 -12.227  1.00  0.00    -0.027 C 
BRANCH  17  18
HETATM   18  C   UNL     1      43.046 -16.997 -12.080  1.00  0.00     0.053 C 
BRANCH  18  19
HETATM   19  C   UNL     1      44.506 -16.998 -12.467  1.00  0.00    -0.027 C 
HETATM   20  C   UNL     1      45.518 -17.644 -11.853  1.00  0.00    -0.027 C 
BRANCH  20  21
HETATM   21  C   UNL     1      45.420 -18.566 -10.663  1.00  0.00     0.053 C 
BRANCH  21  22
HETATM   22  C   UNL     1      45.699 -17.819  -9.380  1.00  0.00    -0.027 C 
HETATM   23  C   UNL     1      44.809 -17.468  -8.431  1.00  0.00    -0.031 C 
BRANCH  23  24
HETATM   24  C   UNL     1      43.325 -17.729  -8.452  1.00  0.00     0.022 C 
HETATM   25  C   UNL     1      42.508 -16.444  -8.514  1.00  0.00     0.009 C 
ENDBRANCH  23  24
ENDBRANCH  21  22
ENDBRANCH  20  21
ENDBRANCH  18  19
ENDBRANCH  17  18
ENDBRANCH  15  16
ENDBRANCH  14  15
ENDBRANCH  12  13
ENDBRANCH  11  12
ENDBRANCH   9  10
ENDBRANCH   8   9
ENDBRANCH   6   7
ENDBRANCH   5   6
ENDBRANCH   3   5
ENDBRANCH   1   3
TORSDOF 15
ENDMDL
MODEL 19
REMARK VINA RESULT:      -4.2      2.405      3.930
REMARK  15 active torsions:
REMARK  status: ('A' for Active; 'I' for Inactive)
REMARK    1  A    between atoms: O_1  and  C_23 
REMARK    2  A    between atoms: C_3  and  C_7 
REMARK    3  A    between atoms: C_3  and  C_8 
REMARK    4  A    between atoms: C_4  and  C_10 
REMARK    5  A    between atoms: C_4  and  C_11 
REMARK    6  A    between atoms: C_5  and  C_12 
REMARK    7  A    between atoms: C_5  and  C_13 
REMARK    8  A    between atoms: C_6  and  C_15 
REMARK    9  A    between atoms: C_6  and  C_16 
REMARK   10  A    between atoms: C_7  and  C_23 
REMARK   11  A    between atoms: C_9  and  C_17 
REMARK   12  A    between atoms: C_9  and  C_18 
REMARK   13  A    between atoms: C_14  and  C_19 
REMARK   14  A    between atoms: C_14  and  C_20 
REMARK   15  A    between atoms: C_21  and  C_22 
ROOT
HETATM    1  O   UNL     1      25.754 -14.085 -18.900  1.00  0.00    -0.776 OA
HETATM    2  H   UNL     1      25.864 -15.010 -18.641  1.00  0.00     0.167 HD
ENDROOT
BRANCH   1   3
HETATM    3  C   UNL     1      26.792 -13.354 -19.359  1.00  0.00     0.139 C 
HETATM    4  O   UNL     1      27.208 -13.527 -20.496  1.00  0.00    -0.650 OA
BRANCH   3   5
HETATM    5  C   UNL     1      27.432 -12.326 -18.469  1.00  0.00     0.113 C 
BRANCH   5   6
HETATM    6  C   UNL     1      27.765 -12.922 -17.097  1.00  0.00     0.037 C 
BRANCH   6   7
HETATM    7  C   UNL     1      28.817 -12.094 -16.398  1.00  0.00    -0.030 C 
HETATM    8  C   UNL     1      28.897 -11.830 -15.076  1.00  0.00    -0.027 C 
BRANCH   8   9
HETATM    9  C   UNL     1      27.959 -12.297 -13.985  1.00  0.00     0.053 C 
BRANCH   9  10
HETATM   10  C   UNL     1      28.537 -13.480 -13.250  1.00  0.00    -0.027 C 
HETATM   11  C   UNL     1      29.468 -13.423 -12.280  1.00  0.00    -0.027 C 
BRANCH  11  12
HETATM   12  C   UNL     1      30.060 -12.161 -11.709  1.00  0.00     0.053 C 
BRANCH  12  13
HETATM   13  C   UNL     1      30.438 -12.350 -10.261  1.00  0.00    -0.027 C 
HETATM   14  C   UNL     1      31.320 -11.615  -9.559  1.00  0.00    -0.027 C 
BRANCH  14  15
HETATM   15  C   UNL     1      32.151 -10.478 -10.092  1.00  0.00     0.053 C 
BRANCH  15  16
HETATM   16  C   UNL     1      33.611 -10.803  -9.869  1.00  0.00    -0.027 C 
HETATM   17  C   UNL     1      34.435 -11.510 -10.668  1.00  0.00    -0.027 C 
BRANCH  17  18
HETATM   18  C   UNL     1      34.097 -12.135 -11.997  1.00  0.00     0.053 C 
BRANCH  18  19
HETATM   19  C   UNL     1      33.546 -13.529 -11.806  1.00  0.00    -0.027 C 
HETATM   20  C   UNL     1      33.278 -14.443 -12.760  1.00  0.00    -0.027 C 
BRANCH  20  21
HETATM   21  C   UNL     1      33.518 -14.308 -14.243  1.00  0.00     0.053 C 
BRANCH  21  22
HETATM   22  C   UNL     1      32.243 -13.932 -14.962  1.00  0.00    -0.027 C 
HETATM   23  C   UNL     1      31.195 -14.733 -15.235  1.00  0.00    -0.031 C 
BRANCH  23  24
HETATM   24  C   UNL     1      31.071 -16.195 -14.896  1.00  0.00     0.022 C 
HETATM   25  C   UNL     1      29.621 -16.660 -14.837  1.00  0.00     0.009 C 
ENDBRANCH  23  24
ENDBRANCH  21  22
ENDBRANCH  20  21
ENDBRANCH  18  19
ENDBRANCH  17  18
ENDBRANCH  15  16
ENDBRANCH  14  15
ENDBRANCH  12  13
ENDBRANCH  11  12
ENDBRANCH   9  10
ENDBRANCH   8   9
ENDBRANCH   6   7
ENDBRANCH   5   6
ENDBRANCH   3   5
ENDBRANCH   1   3
TORSDOF 15
ENDMDL
MODEL 20
REMARK VINA RESULT:      -4.1      6.229      8.898
REMARK  15 active torsions:
REMARK  status: ('A' for Active; 'I' for Inactive)
REMARK    1  A    between atoms: O_1  and  C_23 
REMARK    2  A    between atoms: C_3  and  C_7 
REMARK    3  A    between atoms: C_3  and  C_8 
REMARK    4  A    between atoms: C_4  and  C_10 
REMARK    5  A    between atoms: C_4  and  C_11 
REMARK    6  A    between atoms: C_5  and  C_12 
REMARK    7  A    between atoms: C_5  and  C_13 
REMARK    8  A    between atoms: C_6  and  C_15 
REMARK    9  A    between atoms: C_6  and  C_16 
REMARK   10  A    between atoms: C_7  and  C_23 
REMARK   11  A    between atoms: C_9  and  C_17 
REMARK   12  A    between atoms: C_9  and  C_18 
REMARK   13  A    between atoms: C_14  and  C_19 
REMARK   14  A    between atoms: C_14  and  C_20 
REMARK   15  A    between atoms: C_21  and  C_22 
ROOT
HETATM    1  O   UNL     1      39.409 -15.926 -15.159  1.00  0.00    -0.776 OA
HETATM    2  H   UNL     1      38.595 -16.441 -15.253  1.00  0.00     0.167 HD
ENDROOT
BRANCH   1   3
HETATM    3  C   UNL     1      40.347 -15.910 -16.130  1.00  0.00     0.139 C 
HETATM    4  O   UNL     1      41.228 -16.758 -16.145  1.00  0.00    -0.650 OA
BRANCH   3   5
HETATM    5  C   UNL     1      40.302 -14.850 -17.193  1.00  0.00     0.113 C 
BRANCH   5   6
HETATM    6  C   UNL     1      40.700 -13.484 -16.621  1.00  0.00     0.037 C 
BRANCH   6   7
HETATM    7  C   UNL     1      39.824 -12.394 -17.189  1.00  0.00    -0.030 C 
HETATM    8  C   UNL     1      38.628 -11.984 -16.716  1.00  0.00    -0.027 C 
BRANCH   8   9
HETATM    9  C   UNL     1      37.883 -12.516 -15.510  1.00  0.00     0.053 C 
BRANCH   9  10
HETATM   10  C   UNL     1      36.514 -11.891 -15.407  1.00  0.00    -0.027 C 
HETATM   11  C   UNL     1      35.870 -11.597 -14.263  1.00  0.00    -0.027 C 
BRANCH  11  12
HETATM   12  C   UNL     1      36.422 -11.786 -12.875  1.00  0.00     0.053 C 
BRANCH  12  13
HETATM   13  C   UNL     1      35.591 -12.774 -12.094  1.00  0.00    -0.027 C 
HETATM   14  C   UNL     1      36.020 -13.577 -11.103  1.00  0.00    -0.027 C 
BRANCH  14  15
HETATM   15  C   UNL     1      37.435 -13.689 -10.601  1.00  0.00     0.053 C 
BRANCH  15  16
HETATM   16  C   UNL     1      37.650 -12.641  -9.531  1.00  0.00    -0.027 C 
HETATM   17  C   UNL     1      38.803 -12.034  -9.186  1.00  0.00    -0.027 C 
BRANCH  17  18
HETATM   18  C   UNL     1      40.161 -12.244  -9.803  1.00  0.00     0.053 C 
BRANCH  18  19
HETATM   19  C   UNL     1      40.313 -11.410 -11.054  1.00  0.00    -0.027 C 
HETATM   20  C   UNL     1      40.250 -11.832 -12.334  1.00  0.00    -0.027 C 
BRANCH  20  21
HETATM   21  C   UNL     1      39.957 -13.231 -12.817  1.00  0.00     0.053 C 
BRANCH  21  22
HETATM   22  C   UNL     1      41.206 -14.081 -12.790  1.00  0.00    -0.027 C 
HETATM   23  C   UNL     1      41.373 -15.264 -12.167  1.00  0.00    -0.031 C 
BRANCH  23  24
HETATM   24  C   UNL     1      40.348 -15.995 -11.339  1.00  0.00     0.022 C 
HETATM   25  C   UNL     1      40.528 -15.755  -9.846  1.00  0.00     0.009 C 
ENDBRANCH  23  24
ENDBRANCH  21  22
ENDBRANCH  20  21
ENDBRANCH  18  19
ENDBRANCH  17  18
ENDBRANCH  15  16
ENDBRANCH  14  15
ENDBRANCH  12  13
ENDBRANCH  11  12
ENDBRANCH   9  10
ENDBRANCH   8   9
ENDBRANCH   6   7
ENDBRANCH   5   6
ENDBRANCH   3   5
ENDBRANCH   1   3
TORSDOF 15
ENDMDL
