MODEL 1
REMARK VINA RESULT:      -4.8      0.000      0.000
REMARK  15 active torsions:
REMARK  status: ('A' for Active; 'I' for Inactive)
REMARK    1  A    between atoms: O_1  and  C_23 
REMARK    2  A    between atoms: C_3  and  C_7 
REMARK    3  A    between atoms: C_3  and  C_8 
REMARK    4  A    between atoms: C_4  and  C_10 
REMARK    5  A    between atoms: C_4  and  C_11 
REMARK    6  A    between atoms: C_5  and  C_12 
REMARK    7  A    between atoms: C_5  and  C_13 
REMARK    8  A    between atoms: C_6  and  C_15 
REMARK    9  A    between atoms: C_6  and  C_16 
REMARK   10  A    between atoms: C_7  and  C_23 
REMARK   11  A    between atoms: C_9  and  C_17 
REMARK   12  A    between atoms: C_9  and  C_18 
REMARK   13  A    between atoms: C_14  and  C_19 
REMARK   14  A    between atoms: C_14  and  C_20 
REMARK   15  A    between atoms: C_21  and  C_22 
ROOT
HETATM    1  O   UNL     1      43.536  12.003  -9.018  1.00  0.00    -0.776 OA
HETATM    2  H   UNL     1      43.373  11.735  -9.933  1.00  0.00     0.167 HD
ENDROOT
BRANCH   1   3
HETATM    3  C   UNL     1      42.652  11.728  -8.035  1.00  0.00     0.139 C 
HETATM    4  O   UNL     1      42.963  11.902  -6.866  1.00  0.00    -0.650 OA
BRANCH   3   5
HETATM    5  C   UNL     1      41.286  11.211  -8.385  1.00  0.00     0.113 C 
BRANCH   5   6
HETATM    6  C   UNL     1      41.160   9.722  -8.043  1.00  0.00     0.037 C 
BRANCH   6   7
HETATM    7  C   UNL     1      41.367   8.874  -9.275  1.00  0.00    -0.030 C 
HETATM    8  C   UNL     1      40.538   7.924  -9.756  1.00  0.00    -0.027 C 
BRANCH   8   9
HETATM    9  C   UNL     1      39.210   7.482  -9.180  1.00  0.00     0.053 C 
BRANCH   9  10
HETATM   10  C   UNL     1      38.099   7.677 -10.181  1.00  0.00    -0.027 C 
HETATM   11  C   UNL     1      37.532   8.852 -10.506  1.00  0.00    -0.027 C 
BRANCH  11  12
HETATM   12  C   UNL     1      37.943  10.199  -9.971  1.00  0.00     0.053 C 
BRANCH  12  13
HETATM   13  C   UNL     1      36.891  10.753  -9.042  1.00  0.00    -0.027 C 
HETATM   14  C   UNL     1      36.897  10.695  -7.697  1.00  0.00    -0.027 C 
BRANCH  14  15
HETATM   15  C   UNL     1      37.936  10.019  -6.843  1.00  0.00     0.053 C 
BRANCH  15  16
HETATM   16  C   UNL     1      37.243   9.017  -5.946  1.00  0.00    -0.027 C 
HETATM   17  C   UNL     1      37.724   7.844  -5.487  1.00  0.00    -0.027 C 
BRANCH  17  18
HETATM   18  C   UNL     1      39.086   7.257  -5.744  1.00  0.00     0.053 C 
BRANCH  18  19
HETATM   19  C   UNL     1      40.142   7.990  -4.950  1.00  0.00    -0.027 C 
HETATM   20  C   UNL     1      40.290   8.017  -3.610  1.00  0.00    -0.027 C 
BRANCH  20  21
HETATM   21  C   UNL     1      39.465   7.273  -2.588  1.00  0.00     0.053 C 
BRANCH  21  22
HETATM   22  C   UNL     1      39.212   8.133  -1.372  1.00  0.00    -0.027 C 
HETATM   23  C   UNL     1      38.393   9.200  -1.284  1.00  0.00    -0.031 C 
BRANCH  23  24
HETATM   24  C   UNL     1      37.558   9.784  -2.394  1.00  0.00     0.022 C 
HETATM   25  C   UNL     1      38.086  11.130  -2.874  1.00  0.00     0.009 C 
ENDBRANCH  23  24
ENDBRANCH  21  22
ENDBRANCH  20  21
ENDBRANCH  18  19
ENDBRANCH  17  18
ENDBRANCH  15  16
ENDBRANCH  14  15
ENDBRANCH  12  13
ENDBRANCH  11  12
ENDBRANCH   9  10
ENDBRANCH   8   9
ENDBRANCH   6   7
ENDBRANCH   5   6
ENDBRANCH   3   5
ENDBRANCH   1   3
TORSDOF 15
ENDMDL
MODEL 2
REMARK VINA RESULT:      -4.8     26.403     29.100
REMARK  15 active torsions:
REMARK  status: ('A' for Active; 'I' for Inactive)
REMARK    1  A    between atoms: O_1  and  C_23 
REMARK    2  A    between atoms: C_3  and  C_7 
REMARK    3  A    between atoms: C_3  and  C_8 
REMARK    4  A    between atoms: C_4  and  C_10 
REMARK    5  A    between atoms: C_4  and  C_11 
REMARK    6  A    between atoms: C_5  and  C_12 
REMARK    7  A    between atoms: C_5  and  C_13 
REMARK    8  A    between atoms: C_6  and  C_15 
REMARK    9  A    between atoms: C_6  and  C_16 
REMARK   10  A    between atoms: C_7  and  C_23 
REMARK   11  A    between atoms: C_9  and  C_17 
REMARK   12  A    between atoms: C_9  and  C_18 
REMARK   13  A    between atoms: C_14  and  C_19 
REMARK   14  A    between atoms: C_14  and  C_20 
REMARK   15  A    between atoms: C_21  and  C_22 
ROOT
HETATM    1  O   UNL     1      32.908 -20.348 -14.204  1.00  0.00    -0.776 OA
HETATM    2  H   UNL     1      33.461 -19.665 -14.607  1.00  0.00     0.167 HD
ENDROOT
BRANCH   1   3
HETATM    3  C   UNL     1      31.590 -20.440 -14.479  1.00  0.00     0.139 C 
HETATM    4  O   UNL     1      31.219 -20.909 -15.546  1.00  0.00    -0.650 OA
BRANCH   3   5
HETATM    5  C   UNL     1      30.582 -19.969 -13.470  1.00  0.00     0.113 C 
BRANCH   5   6
HETATM    6  C   UNL     1      29.925 -18.660 -13.923  1.00  0.00     0.037 C 
BRANCH   6   7
HETATM    7  C   UNL     1      30.974 -17.639 -14.293  1.00  0.00    -0.030 C 
HETATM    8  C   UNL     1      31.023 -16.898 -15.421  1.00  0.00    -0.027 C 
BRANCH   8   9
HETATM    9  C   UNL     1      30.047 -16.913 -16.577  1.00  0.00     0.053 C 
BRANCH   9  10
HETATM   10  C   UNL     1      30.384 -18.015 -17.550  1.00  0.00    -0.027 C 
HETATM   11  C   UNL     1      30.798 -17.844 -18.818  1.00  0.00    -0.027 C 
BRANCH  11  12
HETATM   12  C   UNL     1      31.057 -16.516 -19.481  1.00  0.00     0.053 C 
BRANCH  12  13
HETATM   13  C   UNL     1      29.948 -16.170 -20.444  1.00  0.00    -0.027 C 
HETATM   14  C   UNL     1      28.951 -15.289 -20.237  1.00  0.00    -0.027 C 
BRANCH  14  15
HETATM   15  C   UNL     1      28.711 -14.502 -18.976  1.00  0.00     0.053 C 
BRANCH  15  16
HETATM   16  C   UNL     1      28.428 -13.065 -19.353  1.00  0.00    -0.027 C 
HETATM   17  C   UNL     1      29.275 -12.169 -19.900  1.00  0.00    -0.027 C 
BRANCH  17  18
HETATM   18  C   UNL     1      30.713 -12.396 -20.286  1.00  0.00     0.053 C 
BRANCH  18  19
HETATM   19  C   UNL     1      31.640 -11.673 -19.337  1.00  0.00    -0.027 C 
HETATM   20  C   UNL     1      32.101 -12.110 -18.148  1.00  0.00    -0.027 C 
BRANCH  20  21
HETATM   21  C   UNL     1      31.841 -13.452 -17.508  1.00  0.00     0.053 C 
BRANCH  21  22
HETATM   22  C   UNL     1      31.845 -13.340 -16.002  1.00  0.00    -0.027 C 
HETATM   23  C   UNL     1      30.776 -13.207 -15.192  1.00  0.00    -0.031 C 
BRANCH  23  24
HETATM   24  C   UNL     1      29.333 -13.123 -15.617  1.00  0.00     0.022 C 
HETATM   25  C   UNL     1      28.879 -11.689 -15.858  1.00  0.00     0.009 C 
ENDBRANCH  23  24
ENDBRANCH  21  22
ENDBRANCH  20  21
ENDBRANCH  18  19
ENDBRANCH  17  18
ENDBRANCH  15  16
ENDBRANCH  14  15
ENDBRANCH  12  13
ENDBRANCH  11  12
ENDBRANCH   9  10
ENDBRANCH   8   9
ENDBRANCH   6   7
ENDBRANCH   5   6
ENDBRANCH   3   5
ENDBRANCH   1   3
TORSDOF 15
ENDMDL
MODEL 3
REMARK VINA RESULT:      -4.7     25.432     27.754
REMARK  15 active torsions:
REMARK  status: ('A' for Active; 'I' for Inactive)
REMARK    1  A    between atoms: O_1  and  C_23 
REMARK    2  A    between atoms: C_3  and  C_7 
REMARK    3  A    between atoms: C_3  and  C_8 
REMARK    4  A    between atoms: C_4  and  C_10 
REMARK    5  A    between atoms: C_4  and  C_11 
REMARK    6  A    between atoms: C_5  and  C_12 
REMARK    7  A    between atoms: C_5  and  C_13 
REMARK    8  A    between atoms: C_6  and  C_15 
REMARK    9  A    between atoms: C_6  and  C_16 
REMARK   10  A    between atoms: C_7  and  C_23 
REMARK   11  A    between atoms: C_9  and  C_17 
REMARK   12  A    between atoms: C_9  and  C_18 
REMARK   13  A    between atoms: C_14  and  C_19 
REMARK   14  A    between atoms: C_14  and  C_20 
REMARK   15  A    between atoms: C_21  and  C_22 
ROOT
HETATM    1  O   UNL     1      26.414 -13.145 -10.602  1.00  0.00    -0.776 OA
HETATM    2  H   UNL     1      25.580 -12.676 -10.746  1.00  0.00     0.167 HD
ENDROOT
BRANCH   1   3
HETATM    3  C   UNL     1      26.943 -13.947 -11.550  1.00  0.00     0.139 C 
HETATM    4  O   UNL     1      26.212 -14.512 -12.352  1.00  0.00    -0.650 OA
BRANCH   3   5
HETATM    5  C   UNL     1      28.431 -14.141 -11.619  1.00  0.00     0.113 C 
BRANCH   5   6
HETATM    6  C   UNL     1      29.143 -12.814 -11.907  1.00  0.00     0.037 C 
BRANCH   6   7
HETATM    7  C   UNL     1      29.710 -12.227 -10.636  1.00  0.00    -0.030 C 
HETATM    8  C   UNL     1      31.014 -12.055 -10.333  1.00  0.00    -0.027 C 
BRANCH   8   9
HETATM    9  C   UNL     1      32.213 -12.406 -11.188  1.00  0.00     0.053 C 
BRANCH   9  10
HETATM   10  C   UNL     1      32.311 -11.486 -12.378  1.00  0.00    -0.027 C 
HETATM   11  C   UNL     1      32.631 -11.855 -13.632  1.00  0.00    -0.027 C 
BRANCH  11  12
HETATM   12  C   UNL     1      32.893 -13.267 -14.087  1.00  0.00     0.053 C 
BRANCH  12  13
HETATM   13  C   UNL     1      31.600 -14.011 -14.305  1.00  0.00    -0.027 C 
HETATM   14  C   UNL     1      31.285 -15.231 -13.830  1.00  0.00    -0.027 C 
BRANCH  14  15
HETATM   15  C   UNL     1      32.184 -16.126 -13.020  1.00  0.00     0.053 C 
BRANCH  15  16
HETATM   16  C   UNL     1      31.903 -15.889 -11.552  1.00  0.00    -0.027 C 
HETATM   17  C   UNL     1      31.059 -16.569 -10.750  1.00  0.00    -0.027 C 
BRANCH  17  18
HETATM   18  C   UNL     1      30.203 -17.750 -11.124  1.00  0.00     0.053 C 
BRANCH  18  19
HETATM   19  C   UNL     1      30.850 -19.041 -10.679  1.00  0.00    -0.027 C 
HETATM   20  C   UNL     1      30.933 -20.198 -11.367  1.00  0.00    -0.027 C 
BRANCH  20  21
HETATM   21  C   UNL     1      30.444 -20.458 -12.771  1.00  0.00     0.053 C 
BRANCH  21  22
HETATM   22  C   UNL     1      31.516 -20.129 -13.783  1.00  0.00    -0.027 C 
HETATM   23  C   UNL     1      31.430 -19.257 -14.807  1.00  0.00    -0.031 C 
BRANCH  23  24
HETATM   24  C   UNL     1      30.230 -18.425 -15.179  1.00  0.00     0.022 C 
HETATM   25  C   UNL     1      30.215 -18.052 -16.655  1.00  0.00     0.009 C 
ENDBRANCH  23  24
ENDBRANCH  21  22
ENDBRANCH  20  21
ENDBRANCH  18  19
ENDBRANCH  17  18
ENDBRANCH  15  16
ENDBRANCH  14  15
ENDBRANCH  12  13
ENDBRANCH  11  12
ENDBRANCH   9  10
ENDBRANCH   8   9
ENDBRANCH   6   7
ENDBRANCH   5   6
ENDBRANCH   3   5
ENDBRANCH   1   3
TORSDOF 15
ENDMDL
MODEL 4
REMARK VINA RESULT:      -4.7     25.317     28.142
REMARK  15 active torsions:
REMARK  status: ('A' for Active; 'I' for Inactive)
REMARK    1  A    between atoms: O_1  and  C_23 
REMARK    2  A    between atoms: C_3  and  C_7 
REMARK    3  A    between atoms: C_3  and  C_8 
REMARK    4  A    between atoms: C_4  and  C_10 
REMARK    5  A    between atoms: C_4  and  C_11 
REMARK    6  A    between atoms: C_5  and  C_12 
REMARK    7  A    between atoms: C_5  and  C_13 
REMARK    8  A    between atoms: C_6  and  C_15 
REMARK    9  A    between atoms: C_6  and  C_16 
REMARK   10  A    between atoms: C_7  and  C_23 
REMARK   11  A    between atoms: C_9  and  C_17 
REMARK   12  A    between atoms: C_9  and  C_18 
REMARK   13  A    between atoms: C_14  and  C_19 
REMARK   14  A    between atoms: C_14  and  C_20 
REMARK   15  A    between atoms: C_21  and  C_22 
ROOT
HETATM    1  O   UNL     1      32.132 -20.783 -15.099  1.00  0.00    -0.776 OA
HETATM    2  H   UNL     1      32.329 -20.538 -14.184  1.00  0.00     0.167 HD
ENDROOT
BRANCH   1   3
HETATM    3  C   UNL     1      31.049 -20.295 -15.741  1.00  0.00     0.139 C 
HETATM    4  O   UNL     1      30.723 -20.754 -16.826  1.00  0.00    -0.650 OA
BRANCH   3   5
HETATM    5  C   UNL     1      30.246 -19.191 -15.116  1.00  0.00     0.113 C 
BRANCH   5   6
HETATM    6  C   UNL     1      30.522 -17.852 -15.811  1.00  0.00     0.037 C 
BRANCH   6   7
HETATM    7  C   UNL     1      31.353 -16.955 -14.926  1.00  0.00    -0.030 C 
HETATM    8  C   UNL     1      31.960 -15.802 -15.279  1.00  0.00    -0.027 C 
BRANCH   8   9
HETATM    9  C   UNL     1      31.953 -15.136 -16.639  1.00  0.00     0.053 C 
BRANCH   9  10
HETATM   10  C   UNL     1      32.887 -13.952 -16.662  1.00  0.00    -0.027 C 
HETATM   11  C   UNL     1      32.615 -12.728 -16.175  1.00  0.00    -0.027 C 
BRANCH  11  12
HETATM   12  C   UNL     1      31.347 -12.332 -15.465  1.00  0.00     0.053 C 
BRANCH  12  13
HETATM   13  C   UNL     1      31.516 -12.424 -13.969  1.00  0.00    -0.027 C 
HETATM   14  C   UNL     1      30.549 -12.664 -13.064  1.00  0.00    -0.027 C 
BRANCH  14  15
HETATM   15  C   UNL     1      29.083 -12.843 -13.359  1.00  0.00     0.053 C 
BRANCH  15  16
HETATM   16  C   UNL     1      28.851 -14.272 -13.795  1.00  0.00    -0.027 C 
HETATM   17  C   UNL     1      28.365 -14.711 -14.974  1.00  0.00    -0.027 C 
BRANCH  17  18
HETATM   18  C   UNL     1      27.952 -13.873 -16.155  1.00  0.00     0.053 C 
BRANCH  18  19
HETATM   19  C   UNL     1      28.494 -14.458 -17.439  1.00  0.00    -0.027 C 
HETATM   20  C   UNL     1      29.115 -13.803 -18.441  1.00  0.00    -0.027 C 
BRANCH  20  21
HETATM   21  C   UNL     1      29.465 -12.336 -18.490  1.00  0.00     0.053 C 
BRANCH  21  22
HETATM   22  C   UNL     1      29.815 -11.914 -19.898  1.00  0.00    -0.027 C 
HETATM   23  C   UNL     1      31.013 -11.494 -20.349  1.00  0.00    -0.031 C 
BRANCH  23  24
HETATM   24  C   UNL     1      32.272 -11.336 -19.538  1.00  0.00     0.022 C 
HETATM   25  C   UNL     1      33.294 -10.432 -20.216  1.00  0.00     0.009 C 
ENDBRANCH  23  24
ENDBRANCH  21  22
ENDBRANCH  20  21
ENDBRANCH  18  19
ENDBRANCH  17  18
ENDBRANCH  15  16
ENDBRANCH  14  15
ENDBRANCH  12  13
ENDBRANCH  11  12
ENDBRANCH   9  10
ENDBRANCH   8   9
ENDBRANCH   6   7
ENDBRANCH   5   6
ENDBRANCH   3   5
ENDBRANCH   1   3
TORSDOF 15
ENDMDL
MODEL 5
REMARK VINA RESULT:      -4.7     24.708     26.751
REMARK  15 active torsions:
REMARK  status: ('A' for Active; 'I' for Inactive)
REMARK    1  A    between atoms: O_1  and  C_23 
REMARK    2  A    between atoms: C_3  and  C_7 
REMARK    3  A    between atoms: C_3  and  C_8 
REMARK    4  A    between atoms: C_4  and  C_10 
REMARK    5  A    between atoms: C_4  and  C_11 
REMARK    6  A    between atoms: C_5  and  C_12 
REMARK    7  A    between atoms: C_5  and  C_13 
REMARK    8  A    between atoms: C_6  and  C_15 
REMARK    9  A    between atoms: C_6  and  C_16 
REMARK   10  A    between atoms: C_7  and  C_23 
REMARK   11  A    between atoms: C_9  and  C_17 
REMARK   12  A    between atoms: C_9  and  C_18 
REMARK   13  A    between atoms: C_14  and  C_19 
REMARK   14  A    between atoms: C_14  and  C_20 
REMARK   15  A    between atoms: C_21  and  C_22 
ROOT
HETATM    1  O   UNL     1      29.861 -21.111 -13.864  1.00  0.00    -0.776 OA
HETATM    2  H   UNL     1      30.100 -22.047 -13.893  1.00  0.00     0.167 HD
ENDROOT
BRANCH   1   3
HETATM    3  C   UNL     1      30.616 -20.212 -13.198  1.00  0.00     0.139 C 
HETATM    4  O   UNL     1      31.094 -20.500 -12.109  1.00  0.00    -0.650 OA
BRANCH   3   5
HETATM    5  C   UNL     1      30.870 -18.859 -13.799  1.00  0.00     0.113 C 
BRANCH   5   6
HETATM    6  C   UNL     1      30.360 -17.745 -12.877  1.00  0.00     0.037 C 
BRANCH   6   7
HETATM    7  C   UNL     1      31.290 -16.556 -12.913  1.00  0.00    -0.030 C 
HETATM    8  C   UNL     1      30.941 -15.254 -12.982  1.00  0.00    -0.027 C 
BRANCH   8   9
HETATM    9  C   UNL     1      29.543 -14.676 -13.039  1.00  0.00     0.053 C 
BRANCH   9  10
HETATM   10  C   UNL     1      29.509 -13.294 -12.439  1.00  0.00    -0.027 C 
HETATM   11  C   UNL     1      28.729 -12.900 -11.416  1.00  0.00    -0.027 C 
BRANCH  11  12
HETATM   12  C   UNL     1      27.787 -13.787 -10.644  1.00  0.00     0.053 C 
BRANCH  12  13
HETATM   13  C   UNL     1      28.271 -13.982  -9.228  1.00  0.00    -0.027 C 
HETATM   14  C   UNL     1      29.067 -14.972  -8.781  1.00  0.00    -0.027 C 
BRANCH  14  15
HETATM   15  C   UNL     1      29.599 -16.120  -9.597  1.00  0.00     0.053 C 
BRANCH  15  16
HETATM   16  C   UNL     1      31.002 -16.433  -9.128  1.00  0.00    -0.027 C 
HETATM   17  C   UNL     1      32.105 -15.666  -9.242  1.00  0.00    -0.027 C 
BRANCH  17  18
HETATM   18  C   UNL     1      32.198 -14.292  -9.852  1.00  0.00     0.053 C 
BRANCH  18  19
HETATM   19  C   UNL     1      32.233 -13.232  -8.776  1.00  0.00    -0.027 C 
HETATM   20  C   UNL     1      32.089 -11.900  -8.931  1.00  0.00    -0.027 C 
BRANCH  20  21
HETATM   21  C   UNL     1      31.802 -11.158 -10.213  1.00  0.00     0.053 C 
BRANCH  21  22
HETATM   22  C   UNL     1      33.077 -10.620 -10.820  1.00  0.00    -0.027 C 
HETATM   23  C   UNL     1      33.662 -11.014 -11.968  1.00  0.00    -0.031 C 
BRANCH  23  24
HETATM   24  C   UNL     1      33.179 -12.098 -12.896  1.00  0.00     0.022 C 
HETATM   25  C   UNL     1      32.449 -11.543 -14.111  1.00  0.00     0.009 C 
ENDBRANCH  23  24
ENDBRANCH  21  22
ENDBRANCH  20  21
ENDBRANCH  18  19
ENDBRANCH  17  18
ENDBRANCH  15  16
ENDBRANCH  14  15
ENDBRANCH  12  13
ENDBRANCH  11  12
ENDBRANCH   9  10
ENDBRANCH   8   9
ENDBRANCH   6   7
ENDBRANCH   5   6
ENDBRANCH   3   5
ENDBRANCH   1   3
TORSDOF 15
ENDMDL
MODEL 6
REMARK VINA RESULT:      -4.7     24.934     26.565
REMARK  15 active torsions:
REMARK  status: ('A' for Active; 'I' for Inactive)
REMARK    1  A    between atoms: O_1  and  C_23 
REMARK    2  A    between atoms: C_3  and  C_7 
REMARK    3  A    between atoms: C_3  and  C_8 
REMARK    4  A    between atoms: C_4  and  C_10 
REMARK    5  A    between atoms: C_4  and  C_11 
REMARK    6  A    between atoms: C_5  and  C_12 
REMARK    7  A    between atoms: C_5  and  C_13 
REMARK    8  A    between atoms: C_6  and  C_15 
REMARK    9  A    between atoms: C_6  and  C_16 
REMARK   10  A    between atoms: C_7  and  C_23 
REMARK   11  A    between atoms: C_9  and  C_17 
REMARK   12  A    between atoms: C_9  and  C_18 
REMARK   13  A    between atoms: C_14  and  C_19 
REMARK   14  A    between atoms: C_14  and  C_20 
REMARK   15  A    between atoms: C_21  and  C_22 
ROOT
HETATM    1  O   UNL     1      32.523 -20.263  -8.935  1.00  0.00    -0.776 OA
HETATM    2  H   UNL     1      32.552 -19.971  -8.014  1.00  0.00     0.167 HD
ENDROOT
BRANCH   1   3
HETATM    3  C   UNL     1      31.353 -20.399  -9.595  1.00  0.00     0.139 C 
HETATM    4  O   UNL     1      31.334 -20.900 -10.710  1.00  0.00    -0.650 OA
BRANCH   3   5
HETATM    5  C   UNL     1      30.077 -19.936  -8.953  1.00  0.00     0.113 C 
BRANCH   5   6
HETATM    6  C   UNL     1      30.313 -18.680  -8.107  1.00  0.00     0.037 C 
BRANCH   6   7
HETATM    7  C   UNL     1      29.948 -17.438  -8.884  1.00  0.00    -0.030 C 
HETATM    8  C   UNL     1      30.703 -16.332  -9.050  1.00  0.00    -0.027 C 
BRANCH   8   9
HETATM    9  C   UNL     1      32.090 -16.072  -8.501  1.00  0.00     0.053 C 
BRANCH   9  10
HETATM   10  C   UNL     1      32.897 -15.231  -9.458  1.00  0.00    -0.027 C 
HETATM   11  C   UNL     1      32.947 -13.887  -9.472  1.00  0.00    -0.027 C 
BRANCH  11  12
HETATM   12  C   UNL     1      32.250 -12.976  -8.495  1.00  0.00     0.053 C 
BRANCH  12  13
HETATM   13  C   UNL     1      30.981 -12.419  -9.091  1.00  0.00    -0.027 C 
HETATM   14  C   UNL     1      29.739 -12.532  -8.585  1.00  0.00    -0.027 C 
BRANCH  14  15
HETATM   15  C   UNL     1      29.354 -13.284  -7.339  1.00  0.00     0.053 C 
BRANCH  15  16
HETATM   16  C   UNL     1      28.836 -12.294  -6.320  1.00  0.00    -0.027 C 
HETATM   17  C   UNL     1      29.549 -11.538  -5.461  1.00  0.00    -0.027 C 
BRANCH  17  18
HETATM   18  C   UNL     1      31.048 -11.486  -5.325  1.00  0.00     0.053 C 
BRANCH  18  19
HETATM   19  C   UNL     1      31.497 -12.222  -4.084  1.00  0.00    -0.027 C 
HETATM   20  C   UNL     1      32.067 -13.442  -4.014  1.00  0.00    -0.027 C 
BRANCH  20  21
HETATM   21  C   UNL     1      32.443 -14.338  -5.168  1.00  0.00     0.053 C 
BRANCH  21  22
HETATM   22  C   UNL     1      32.296 -15.793  -4.789  1.00  0.00    -0.027 C 
HETATM   23  C   UNL     1      31.188 -16.553  -4.886  1.00  0.00    -0.031 C 
BRANCH  23  24
HETATM   24  C   UNL     1      29.836 -16.109  -5.380  1.00  0.00     0.022 C 
HETATM   25  C   UNL     1      29.010 -15.434  -4.292  1.00  0.00     0.009 C 
ENDBRANCH  23  24
ENDBRANCH  21  22
ENDBRANCH  20  21
ENDBRANCH  18  19
ENDBRANCH  17  18
ENDBRANCH  15  16
ENDBRANCH  14  15
ENDBRANCH  12  13
ENDBRANCH  11  12
ENDBRANCH   9  10
ENDBRANCH   8   9
ENDBRANCH   6   7
ENDBRANCH   5   6
ENDBRANCH   3   5
ENDBRANCH   1   3
TORSDOF 15
ENDMDL
MODEL 7
REMARK VINA RESULT:      -4.7     25.676     27.770
REMARK  15 active torsions:
REMARK  status: ('A' for Active; 'I' for Inactive)
REMARK    1  A    between atoms: O_1  and  C_23 
REMARK    2  A    between atoms: C_3  and  C_7 
REMARK    3  A    between atoms: C_3  and  C_8 
REMARK    4  A    between atoms: C_4  and  C_10 
REMARK    5  A    between atoms: C_4  and  C_11 
REMARK    6  A    between atoms: C_5  and  C_12 
REMARK    7  A    between atoms: C_5  and  C_13 
REMARK    8  A    between atoms: C_6  and  C_15 
REMARK    9  A    between atoms: C_6  and  C_16 
REMARK   10  A    between atoms: C_7  and  C_23 
REMARK   11  A    between atoms: C_9  and  C_17 
REMARK   12  A    between atoms: C_9  and  C_18 
REMARK   13  A    between atoms: C_14  and  C_19 
REMARK   14  A    between atoms: C_14  and  C_20 
REMARK   15  A    between atoms: C_21  and  C_22 
ROOT
HETATM    1  O   UNL     1      29.157 -18.374  -9.015  1.00  0.00    -0.776 OA
HETATM    2  H   UNL     1      28.256 -18.720  -9.069  1.00  0.00     0.167 HD
ENDROOT
BRANCH   1   3
HETATM    3  C   UNL     1      30.017 -18.792  -8.062  1.00  0.00     0.139 C 
HETATM    4  O   UNL     1      30.182 -18.125  -7.051  1.00  0.00    -0.650 OA
BRANCH   3   5
HETATM    5  C   UNL     1      30.765 -20.082  -8.247  1.00  0.00     0.113 C 
BRANCH   5   6
HETATM    6  C   UNL     1      31.752 -19.979  -9.416  1.00  0.00     0.037 C 
BRANCH   6   7
HETATM    7  C   UNL     1      31.251 -20.763 -10.605  1.00  0.00    -0.030 C 
HETATM    8  C   UNL     1      30.741 -20.264 -11.751  1.00  0.00    -0.027 C 
BRANCH   8   9
HETATM    9  C   UNL     1      30.550 -18.807 -12.117  1.00  0.00     0.053 C 
BRANCH   9  10
HETATM   10  C   UNL     1      29.934 -18.674 -13.486  1.00  0.00    -0.027 C 
HETATM   11  C   UNL     1      30.186 -17.691 -14.369  1.00  0.00    -0.027 C 
BRANCH  11  12
HETATM   12  C   UNL     1      31.176 -16.573 -14.173  1.00  0.00     0.053 C 
BRANCH  12  13
HETATM   13  C   UNL     1      30.542 -15.235 -14.466  1.00  0.00    -0.027 C 
HETATM   14  C   UNL     1      31.079 -14.024 -14.231  1.00  0.00    -0.027 C 
BRANCH  14  15
HETATM   15  C   UNL     1      32.409 -13.755 -13.578  1.00  0.00     0.053 C 
BRANCH  15  16
HETATM   16  C   UNL     1      32.520 -12.271 -13.307  1.00  0.00    -0.027 C 
HETATM   17  C   UNL     1      32.360 -11.628 -12.133  1.00  0.00    -0.027 C 
BRANCH  17  18
HETATM   18  C   UNL     1      32.047 -12.244 -10.795  1.00  0.00     0.053 C 
BRANCH  18  19
HETATM   19  C   UNL     1      30.808 -11.620 -10.196  1.00  0.00    -0.027 C 
HETATM   20  C   UNL     1      29.528 -11.809 -10.577  1.00  0.00    -0.027 C 
BRANCH  20  21
HETATM   21  C   UNL     1      29.028 -12.735 -11.658  1.00  0.00     0.053 C 
BRANCH  21  22
HETATM   22  C   UNL     1      28.331 -13.935 -11.059  1.00  0.00    -0.027 C 
HETATM   23  C   UNL     1      28.897 -15.092 -10.664  1.00  0.00    -0.031 C 
BRANCH  23  24
HETATM   24  C   UNL     1      30.357 -15.453 -10.752  1.00  0.00     0.022 C 
HETATM   25  C   UNL     1      31.047 -15.426  -9.394  1.00  0.00     0.009 C 
ENDBRANCH  23  24
ENDBRANCH  21  22
ENDBRANCH  20  21
ENDBRANCH  18  19
ENDBRANCH  17  18
ENDBRANCH  15  16
ENDBRANCH  14  15
ENDBRANCH  12  13
ENDBRANCH  11  12
ENDBRANCH   9  10
ENDBRANCH   8   9
ENDBRANCH   6   7
ENDBRANCH   5   6
ENDBRANCH   3   5
ENDBRANCH   1   3
TORSDOF 15
ENDMDL
MODEL 8
REMARK VINA RESULT:      -4.6     25.823     28.003
REMARK  15 active torsions:
REMARK  status: ('A' for Active; 'I' for Inactive)
REMARK    1  A    between atoms: O_1  and  C_23 
REMARK    2  A    between atoms: C_3  and  C_7 
REMARK    3  A    between atoms: C_3  and  C_8 
REMARK    4  A    between atoms: C_4  and  C_10 
REMARK    5  A    between atoms: C_4  and  C_11 
REMARK    6  A    between atoms: C_5  and  C_12 
REMARK    7  A    between atoms: C_5  and  C_13 
REMARK    8  A    between atoms: C_6  and  C_15 
REMARK    9  A    between atoms: C_6  and  C_16 
REMARK   10  A    between atoms: C_7  and  C_23 
REMARK   11  A    between atoms: C_9  and  C_17 
REMARK   12  A    between atoms: C_9  and  C_18 
REMARK   13  A    between atoms: C_14  and  C_19 
REMARK   14  A    between atoms: C_14  and  C_20 
REMARK   15  A    between atoms: C_21  and  C_22 
ROOT
HETATM    1  O   UNL     1      31.189 -18.311 -11.078  1.00  0.00    -0.776 OA
HETATM    2  H   UNL     1      30.821 -17.583 -10.558  1.00  0.00     0.167 HD
ENDROOT
BRANCH   1   3
HETATM    3  C   UNL     1      30.547 -18.797 -12.161  1.00  0.00     0.139 C 
HETATM    4  O   UNL     1      29.710 -18.115 -12.734  1.00  0.00    -0.650 OA
BRANCH   3   5
HETATM    5  C   UNL     1      30.868 -20.177 -12.662  1.00  0.00     0.113 C 
BRANCH   5   6
HETATM    6  C   UNL     1      30.006 -20.531 -13.879  1.00  0.00     0.037 C 
BRANCH   6   7
HETATM    7  C   UNL     1      30.858 -20.642 -15.120  1.00  0.00    -0.030 C 
HETATM    8  C   UNL     1      30.964 -19.737 -16.116  1.00  0.00    -0.027 C 
BRANCH   8   9
HETATM    9  C   UNL     1      30.258 -18.402 -16.227  1.00  0.00     0.053 C 
BRANCH   9  10
HETATM   10  C   UNL     1      30.305 -17.886 -17.643  1.00  0.00    -0.027 C 
HETATM   11  C   UNL     1      30.095 -16.613 -18.022  1.00  0.00    -0.027 C 
BRANCH  11  12
HETATM   12  C   UNL     1      29.830 -15.457 -17.094  1.00  0.00     0.053 C 
BRANCH  12  13
HETATM   13  C   UNL     1      30.626 -14.243 -17.505  1.00  0.00    -0.027 C 
HETATM   14  C   UNL     1      30.287 -12.955 -17.306  1.00  0.00    -0.027 C 
BRANCH  14  15
HETATM   15  C   UNL     1      29.013 -12.461 -16.673  1.00  0.00     0.053 C 
BRANCH  15  16
HETATM   16  C   UNL     1      29.364 -11.729 -15.397  1.00  0.00    -0.027 C 
HETATM   17  C   UNL     1      29.522 -12.246 -14.161  1.00  0.00    -0.027 C 
BRANCH  17  18
HETATM   18  C   UNL     1      29.404 -13.692 -13.759  1.00  0.00     0.053 C 
BRANCH  18  19
HETATM   19  C   UNL     1      27.984 -14.022 -13.361  1.00  0.00    -0.027 C 
HETATM   20  C   UNL     1      27.479 -14.101 -12.113  1.00  0.00    -0.027 C 
BRANCH  20  21
HETATM   21  C   UNL     1      28.203 -13.824 -10.819  1.00  0.00     0.053 C 
BRANCH  21  22
HETATM   22  C   UNL     1      28.215 -12.344 -10.516  1.00  0.00    -0.027 C 
HETATM   23  C   UNL     1      29.290 -11.533 -10.452  1.00  0.00    -0.031 C 
BRANCH  23  24
HETATM   24  C   UNL     1      30.728 -11.934 -10.654  1.00  0.00     0.022 C 
HETATM   25  C   UNL     1      31.493 -12.039  -9.340  1.00  0.00     0.009 C 
ENDBRANCH  23  24
ENDBRANCH  21  22
ENDBRANCH  20  21
ENDBRANCH  18  19
ENDBRANCH  17  18
ENDBRANCH  15  16
ENDBRANCH  14  15
ENDBRANCH  12  13
ENDBRANCH  11  12
ENDBRANCH   9  10
ENDBRANCH   8   9
ENDBRANCH   6   7
ENDBRANCH   5   6
ENDBRANCH   3   5
ENDBRANCH   1   3
TORSDOF 15
ENDMDL
MODEL 9
REMARK VINA RESULT:      -4.6     24.908     26.803
REMARK  15 active torsions:
REMARK  status: ('A' for Active; 'I' for Inactive)
REMARK    1  A    between atoms: O_1  and  C_23 
REMARK    2  A    between atoms: C_3  and  C_7 
REMARK    3  A    between atoms: C_3  and  C_8 
REMARK    4  A    between atoms: C_4  and  C_10 
REMARK    5  A    between atoms: C_4  and  C_11 
REMARK    6  A    between atoms: C_5  and  C_12 
REMARK    7  A    between atoms: C_5  and  C_13 
REMARK    8  A    between atoms: C_6  and  C_15 
REMARK    9  A    between atoms: C_6  and  C_16 
REMARK   10  A    between atoms: C_7  and  C_23 
REMARK   11  A    between atoms: C_9  and  C_17 
REMARK   12  A    between atoms: C_9  and  C_18 
REMARK   13  A    between atoms: C_14  and  C_19 
REMARK   14  A    between atoms: C_14  and  C_20 
REMARK   15  A    between atoms: C_21  and  C_22 
ROOT
HETATM    1  O   UNL     1      32.600 -20.506  -8.699  1.00  0.00    -0.776 OA
HETATM    2  H   UNL     1      32.946 -21.183  -8.101  1.00  0.00     0.167 HD
ENDROOT
BRANCH   1   3
HETATM    3  C   UNL     1      31.363 -19.991  -8.538  1.00  0.00     0.139 C 
HETATM    4  O   UNL     1      30.444 -20.708  -8.168  1.00  0.00    -0.650 OA
BRANCH   3   5
HETATM    5  C   UNL     1      31.120 -18.534  -8.812  1.00  0.00     0.113 C 
BRANCH   5   6
HETATM    6  C   UNL     1      29.968 -18.348  -9.806  1.00  0.00     0.037 C 
BRANCH   6   7
HETATM    7  C   UNL     1      30.373 -18.816 -11.183  1.00  0.00    -0.030 C 
HETATM    8  C   UNL     1      30.476 -18.062 -12.299  1.00  0.00    -0.027 C 
BRANCH   8   9
HETATM    9  C   UNL     1      30.213 -16.578 -12.437  1.00  0.00     0.053 C 
BRANCH   9  10
HETATM   10  C   UNL     1      31.431 -15.779 -12.048  1.00  0.00    -0.027 C 
HETATM   11  C   UNL     1      31.816 -14.615 -12.603  1.00  0.00    -0.027 C 
BRANCH  11  12
HETATM   12  C   UNL     1      31.067 -13.867 -13.675  1.00  0.00     0.053 C 
BRANCH  12  13
HETATM   13  C   UNL     1      30.556 -12.547 -13.154  1.00  0.00    -0.027 C 
HETATM   14  C   UNL     1      29.403 -12.337 -12.492  1.00  0.00    -0.027 C 
BRANCH  14  15
HETATM   15  C   UNL     1      28.359 -13.375 -12.177  1.00  0.00     0.053 C 
BRANCH  15  16
HETATM   16  C   UNL     1      27.771 -13.068 -10.817  1.00  0.00    -0.027 C 
HETATM   17  C   UNL     1      27.919 -13.767  -9.674  1.00  0.00    -0.027 C 
BRANCH  17  18
HETATM   18  C   UNL     1      28.728 -15.021  -9.472  1.00  0.00     0.053 C 
BRANCH  18  19
HETATM   19  C   UNL     1      29.541 -14.933  -8.202  1.00  0.00    -0.027 C 
HETATM   20  C   UNL     1      30.771 -14.402  -8.049  1.00  0.00    -0.027 C 
BRANCH  20  21
HETATM   21  C   UNL     1      31.604 -13.718  -9.105  1.00  0.00     0.053 C 
BRANCH  21  22
HETATM   22  C   UNL     1      31.254 -12.251  -9.200  1.00  0.00    -0.027 C 
HETATM   23  C   UNL     1      31.921 -11.296  -9.877  1.00  0.00    -0.031 C 
BRANCH  23  24
HETATM   24  C   UNL     1      33.184 -11.480 -10.678  1.00  0.00     0.022 C 
HETATM   25  C   UNL     1      33.909 -10.165 -10.933  1.00  0.00     0.009 C 
ENDBRANCH  23  24
ENDBRANCH  21  22
ENDBRANCH  20  21
ENDBRANCH  18  19
ENDBRANCH  17  18
ENDBRANCH  15  16
ENDBRANCH  14  15
ENDBRANCH  12  13
ENDBRANCH  11  12
ENDBRANCH   9  10
ENDBRANCH   8   9
ENDBRANCH   6   7
ENDBRANCH   5   6
ENDBRANCH   3   5
ENDBRANCH   1   3
TORSDOF 15
ENDMDL
MODEL 10
REMARK VINA RESULT:      -4.6      5.368      9.716
REMARK  15 active torsions:
REMARK  status: ('A' for Active; 'I' for Inactive)
REMARK    1  A    between atoms: O_1  and  C_23 
REMARK    2  A    between atoms: C_3  and  C_7 
REMARK    3  A    between atoms: C_3  and  C_8 
REMARK    4  A    between atoms: C_4  and  C_10 
REMARK    5  A    between atoms: C_4  and  C_11 
REMARK    6  A    between atoms: C_5  and  C_12 
REMARK    7  A    between atoms: C_5  and  C_13 
REMARK    8  A    between atoms: C_6  and  C_15 
REMARK    9  A    between atoms: C_6  and  C_16 
REMARK   10  A    between atoms: C_7  and  C_23 
REMARK   11  A    between atoms: C_9  and  C_17 
REMARK   12  A    between atoms: C_9  and  C_18 
REMARK   13  A    between atoms: C_14  and  C_19 
REMARK   14  A    between atoms: C_14  and  C_20 
REMARK   15  A    between atoms: C_21  and  C_22 
ROOT
HETATM    1  O   UNL     1      42.199  13.240 -12.757  1.00  0.00    -0.776 OA
HETATM    2  H   UNL     1      42.729  13.848 -12.223  1.00  0.00     0.167 HD
ENDROOT
BRANCH   1   3
HETATM    3  C   UNL     1      42.576  11.956 -12.942  1.00  0.00     0.139 C 
HETATM    4  O   UNL     1      43.611  11.702 -13.540  1.00  0.00    -0.650 OA
BRANCH   3   5
HETATM    5  C   UNL     1      41.720  10.843 -12.407  1.00  0.00     0.113 C 
BRANCH   5   6
HETATM    6  C   UNL     1      40.691  10.394 -13.451  1.00  0.00     0.037 C 
BRANCH   6   7
HETATM    7  C   UNL     1      41.090   9.069 -14.055  1.00  0.00    -0.030 C 
HETATM    8  C   UNL     1      40.450   7.888 -13.916  1.00  0.00    -0.027 C 
BRANCH   8   9
HETATM    9  C   UNL     1      39.189   7.610 -13.127  1.00  0.00     0.053 C 
BRANCH   9  10
HETATM   10  C   UNL     1      39.521   7.125 -11.738  1.00  0.00    -0.027 C 
HETATM   11  C   UNL     1      38.886   7.484 -10.608  1.00  0.00    -0.027 C 
BRANCH  11  12
HETATM   12  C   UNL     1      37.688   8.394 -10.530  1.00  0.00     0.053 C 
BRANCH  12  13
HETATM   13  C   UNL     1      38.114   9.834 -10.394  1.00  0.00    -0.027 C 
HETATM   14  C   UNL     1      37.609  10.888 -11.063  1.00  0.00    -0.027 C 
BRANCH  14  15
HETATM   15  C   UNL     1      36.543  10.835 -12.125  1.00  0.00     0.053 C 
BRANCH  15  16
HETATM   16  C   UNL     1      36.960  11.734 -13.269  1.00  0.00    -0.027 C 
HETATM   17  C   UNL     1      37.315  11.374 -14.519  1.00  0.00    -0.027 C 
BRANCH  17  18
HETATM   18  C   UNL     1      37.364   9.979 -15.084  1.00  0.00     0.053 C 
BRANCH  18  19
HETATM   19  C   UNL     1      37.358  10.015 -16.595  1.00  0.00    -0.027 C 
HETATM   20  C   UNL     1      38.035   9.209 -17.438  1.00  0.00    -0.027 C 
BRANCH  20  21
HETATM   21  C   UNL     1      38.917   8.042 -17.069  1.00  0.00     0.053 C 
BRANCH  21  22
HETATM   22  C   UNL     1      39.471   7.374 -18.306  1.00  0.00    -0.027 C 
HETATM   23  C   UNL     1      40.462   7.823 -19.100  1.00  0.00    -0.031 C 
BRANCH  23  24
HETATM   24  C   UNL     1      41.229   9.109 -18.937  1.00  0.00     0.022 C 
HETATM   25  C   UNL     1      41.195   9.971 -20.192  1.00  0.00     0.009 C 
ENDBRANCH  23  24
ENDBRANCH  21  22
ENDBRANCH  20  21
ENDBRANCH  18  19
ENDBRANCH  17  18
ENDBRANCH  15  16
ENDBRANCH  14  15
ENDBRANCH  12  13
ENDBRANCH  11  12
ENDBRANCH   9  10
ENDBRANCH   8   9
ENDBRANCH   6   7
ENDBRANCH   5   6
ENDBRANCH   3   5
ENDBRANCH   1   3
TORSDOF 15
ENDMDL
MODEL 11
REMARK VINA RESULT:      -4.6     26.358     29.001
REMARK  15 active torsions:
REMARK  status: ('A' for Active; 'I' for Inactive)
REMARK    1  A    between atoms: O_1  and  C_23 
REMARK    2  A    between atoms: C_3  and  C_7 
REMARK    3  A    between atoms: C_3  and  C_8 
REMARK    4  A    between atoms: C_4  and  C_10 
REMARK    5  A    between atoms: C_4  and  C_11 
REMARK    6  A    between atoms: C_5  and  C_12 
REMARK    7  A    between atoms: C_5  and  C_13 
REMARK    8  A    between atoms: C_6  and  C_15 
REMARK    9  A    between atoms: C_6  and  C_16 
REMARK   10  A    between atoms: C_7  and  C_23 
REMARK   11  A    between atoms: C_9  and  C_17 
REMARK   12  A    between atoms: C_9  and  C_18 
REMARK   13  A    between atoms: C_14  and  C_19 
REMARK   14  A    between atoms: C_14  and  C_20 
REMARK   15  A    between atoms: C_21  and  C_22 
ROOT
HETATM    1  O   UNL     1      31.190 -18.924 -10.550  1.00  0.00    -0.776 OA
HETATM    2  H   UNL     1      30.584 -18.239 -10.234  1.00  0.00     0.167 HD
ENDROOT
BRANCH   1   3
HETATM    3  C   UNL     1      30.852 -19.748 -11.565  1.00  0.00     0.139 C 
HETATM    4  O   UNL     1      30.761 -20.952 -11.371  1.00  0.00    -0.650 OA
BRANCH   3   5
HETATM    5  C   UNL     1      30.584 -19.181 -12.930  1.00  0.00     0.113 C 
BRANCH   5   6
HETATM    6  C   UNL     1      30.053 -20.263 -13.877  1.00  0.00     0.037 C 
BRANCH   6   7
HETATM    7  C   UNL     1      30.971 -20.428 -15.065  1.00  0.00    -0.030 C 
HETATM    8  C   UNL     1      31.026 -19.645 -16.163  1.00  0.00    -0.027 C 
BRANCH   8   9
HETATM    9  C   UNL     1      30.188 -18.422 -16.466  1.00  0.00     0.053 C 
BRANCH   9  10
HETATM   10  C   UNL     1      30.895 -17.164 -16.027  1.00  0.00    -0.027 C 
HETATM   11  C   UNL     1      31.549 -16.309 -16.834  1.00  0.00    -0.027 C 
BRANCH  11  12
HETATM   12  C   UNL     1      31.645 -16.421 -18.333  1.00  0.00     0.053 C 
BRANCH  12  13
HETATM   13  C   UNL     1      32.387 -15.243 -18.914  1.00  0.00    -0.027 C 
HETATM   14  C   UNL     1      31.880 -14.296 -19.725  1.00  0.00    -0.027 C 
BRANCH  14  15
HETATM   15  C   UNL     1      30.474 -14.245 -20.259  1.00  0.00     0.053 C 
BRANCH  15  16
HETATM   16  C   UNL     1      29.757 -13.078 -19.615  1.00  0.00    -0.027 C 
HETATM   17  C   UNL     1      28.946 -13.096 -18.538  1.00  0.00    -0.027 C 
BRANCH  17  18
HETATM   18  C   UNL     1      28.573 -14.291 -17.700  1.00  0.00     0.053 C 
BRANCH  18  19
HETATM   19  C   UNL     1      27.435 -13.953 -16.766  1.00  0.00    -0.027 C 
HETATM   20  C   UNL     1      27.518 -13.559 -15.479  1.00  0.00    -0.027 C 
BRANCH  20  21
HETATM   21  C   UNL     1      28.776 -13.309 -14.684  1.00  0.00     0.053 C 
BRANCH  21  22
HETATM   22  C   UNL     1      29.299 -11.913 -14.930  1.00  0.00    -0.027 C 
HETATM   23  C   UNL     1      30.440 -11.569 -15.560  1.00  0.00    -0.031 C 
BRANCH  23  24
HETATM   24  C   UNL     1      31.460 -12.511 -16.144  1.00  0.00     0.022 C 
HETATM   25  C   UNL     1      32.584 -11.778 -16.865  1.00  0.00     0.009 C 
ENDBRANCH  23  24
ENDBRANCH  21  22
ENDBRANCH  20  21
ENDBRANCH  18  19
ENDBRANCH  17  18
ENDBRANCH  15  16
ENDBRANCH  14  15
ENDBRANCH  12  13
ENDBRANCH  11  12
ENDBRANCH   9  10
ENDBRANCH   8   9
ENDBRANCH   6   7
ENDBRANCH   5   6
ENDBRANCH   3   5
ENDBRANCH   1   3
TORSDOF 15
ENDMDL
MODEL 12
REMARK VINA RESULT:      -4.6     25.153     27.363
REMARK  15 active torsions:
REMARK  status: ('A' for Active; 'I' for Inactive)
REMARK    1  A    between atoms: O_1  and  C_23 
REMARK    2  A    between atoms: C_3  and  C_7 
REMARK    3  A    between atoms: C_3  and  C_8 
REMARK    4  A    between atoms: C_4  and  C_10 
REMARK    5  A    between atoms: C_4  and  C_11 
REMARK    6  A    between atoms: C_5  and  C_12 
REMARK    7  A    between atoms: C_5  and  C_13 
REMARK    8  A    between atoms: C_6  and  C_15 
REMARK    9  A    between atoms: C_6  and  C_16 
REMARK   10  A    between atoms: C_7  and  C_23 
REMARK   11  A    between atoms: C_9  and  C_17 
REMARK   12  A    between atoms: C_9  and  C_18 
REMARK   13  A    between atoms: C_14  and  C_19 
REMARK   14  A    between atoms: C_14  and  C_20 
REMARK   15  A    between atoms: C_21  and  C_22 
ROOT
HETATM    1  O   UNL     1      31.389 -20.625 -11.249  1.00  0.00    -0.776 OA
HETATM    2  H   UNL     1      32.029 -21.214 -11.671  1.00  0.00     0.167 HD
ENDROOT
BRANCH   1   3
HETATM    3  C   UNL     1      31.402 -20.411  -9.916  1.00  0.00     0.139 C 
HETATM    4  O   UNL     1      32.465 -20.266  -9.329  1.00  0.00    -0.650 OA
BRANCH   3   5
HETATM    5  C   UNL     1      30.107 -20.349  -9.157  1.00  0.00     0.113 C 
BRANCH   5   6
HETATM    6  C   UNL     1      29.832 -18.926  -8.659  1.00  0.00     0.037 C 
BRANCH   6   7
HETATM    7  C   UNL     1      30.228 -18.783  -7.209  1.00  0.00    -0.030 C 
HETATM    8  C   UNL     1      30.588 -17.648  -6.574  1.00  0.00    -0.027 C 
BRANCH   8   9
HETATM    9  C   UNL     1      30.681 -16.255  -7.158  1.00  0.00     0.053 C 
BRANCH   9  10
HETATM   10  C   UNL     1      31.973 -16.075  -7.914  1.00  0.00    -0.027 C 
HETATM   11  C   UNL     1      32.087 -15.907  -9.244  1.00  0.00    -0.027 C 
BRANCH  11  12
HETATM   12  C   UNL     1      30.939 -15.810 -10.215  1.00  0.00     0.053 C 
BRANCH  12  13
HETATM   13  C   UNL     1      31.166 -16.706 -11.408  1.00  0.00    -0.027 C 
HETATM   14  C   UNL     1      31.248 -16.322 -12.695  1.00  0.00    -0.027 C 
BRANCH  14  15
HETATM   15  C   UNL     1      31.080 -14.919 -13.215  1.00  0.00     0.053 C 
BRANCH  15  16
HETATM   16  C   UNL     1      29.615 -14.688 -13.512  1.00  0.00    -0.027 C 
HETATM   17  C   UNL     1      28.862 -13.618 -13.187  1.00  0.00    -0.027 C 
BRANCH  17  18
HETATM   18  C   UNL     1      29.311 -12.378 -12.460  1.00  0.00     0.053 C 
BRANCH  18  19
HETATM   19  C   UNL     1      29.197 -12.565 -10.965  1.00  0.00    -0.027 C 
HETATM   20  C   UNL     1      30.094 -12.211 -10.022  1.00  0.00    -0.027 C 
BRANCH  20  21
HETATM   21  C   UNL     1      31.403 -11.491 -10.237  1.00  0.00     0.053 C 
BRANCH  21  22
HETATM   22  C   UNL     1      32.472 -12.449 -10.708  1.00  0.00    -0.027 C 
HETATM   23  C   UNL     1      33.261 -12.321 -11.793  1.00  0.00    -0.031 C 
BRANCH  23  24
HETATM   24  C   UNL     1      33.235 -11.194 -12.793  1.00  0.00     0.022 C 
HETATM   25  C   UNL     1      32.505 -11.569 -14.076  1.00  0.00     0.009 C 
ENDBRANCH  23  24
ENDBRANCH  21  22
ENDBRANCH  20  21
ENDBRANCH  18  19
ENDBRANCH  17  18
ENDBRANCH  15  16
ENDBRANCH  14  15
ENDBRANCH  12  13
ENDBRANCH  11  12
ENDBRANCH   9  10
ENDBRANCH   8   9
ENDBRANCH   6   7
ENDBRANCH   5   6
ENDBRANCH   3   5
ENDBRANCH   1   3
TORSDOF 15
ENDMDL
MODEL 13
REMARK VINA RESULT:      -4.6     25.555     28.014
REMARK  15 active torsions:
REMARK  status: ('A' for Active; 'I' for Inactive)
REMARK    1  A    between atoms: O_1  and  C_23 
REMARK    2  A    between atoms: C_3  and  C_7 
REMARK    3  A    between atoms: C_3  and  C_8 
REMARK    4  A    between atoms: C_4  and  C_10 
REMARK    5  A    between atoms: C_4  and  C_11 
REMARK    6  A    between atoms: C_5  and  C_12 
REMARK    7  A    between atoms: C_5  and  C_13 
REMARK    8  A    between atoms: C_6  and  C_15 
REMARK    9  A    between atoms: C_6  and  C_16 
REMARK   10  A    between atoms: C_7  and  C_23 
REMARK   11  A    between atoms: C_9  and  C_17 
REMARK   12  A    between atoms: C_9  and  C_18 
REMARK   13  A    between atoms: C_14  and  C_19 
REMARK   14  A    between atoms: C_14  and  C_20 
REMARK   15  A    between atoms: C_21  and  C_22 
ROOT
HETATM    1  O   UNL     1      30.171 -21.115 -14.187  1.00  0.00    -0.776 OA
HETATM    2  H   UNL     1      30.893 -21.280 -14.809  1.00  0.00     0.167 HD
ENDROOT
BRANCH   1   3
HETATM    3  C   UNL     1      30.337 -20.317 -13.111  1.00  0.00     0.139 C 
HETATM    4  O   UNL     1      30.784 -20.777 -12.070  1.00  0.00    -0.650 OA
BRANCH   3   5
HETATM    5  C   UNL     1      29.976 -18.862 -13.199  1.00  0.00     0.113 C 
BRANCH   5   6
HETATM    6  C   UNL     1      30.796 -18.033 -12.204  1.00  0.00     0.037 C 
BRANCH   6   7
HETATM    7  C   UNL     1      29.999 -16.849 -11.712  1.00  0.00    -0.030 C 
HETATM    8  C   UNL     1      30.475 -15.630 -11.380  1.00  0.00    -0.027 C 
BRANCH   8   9
HETATM    9  C   UNL     1      31.914 -15.161 -11.420  1.00  0.00     0.053 C 
BRANCH   9  10
HETATM   10  C   UNL     1      32.611 -15.454 -10.116  1.00  0.00    -0.027 C 
HETATM   11  C   UNL     1      32.848 -14.565  -9.134  1.00  0.00    -0.027 C 
BRANCH  11  12
HETATM   12  C   UNL     1      32.408 -13.125  -9.135  1.00  0.00     0.053 C 
BRANCH  12  13
HETATM   13  C   UNL     1      31.095 -12.962  -8.411  1.00  0.00    -0.027 C 
HETATM   14  C   UNL     1      29.992 -12.348  -8.877  1.00  0.00    -0.027 C 
BRANCH  14  15
HETATM   15  C   UNL     1      29.859 -11.650 -10.204  1.00  0.00     0.053 C 
BRANCH  15  16
HETATM   16  C   UNL     1      28.732 -12.300 -10.978  1.00  0.00    -0.027 C 
HETATM   17  C   UNL     1      28.721 -12.664 -12.276  1.00  0.00    -0.027 C 
BRANCH  17  18
HETATM   18  C   UNL     1      29.845 -12.528 -13.269  1.00  0.00     0.053 C 
BRANCH  18  19
HETATM   19  C   UNL     1      29.315 -12.561 -14.683  1.00  0.00    -0.027 C 
HETATM   20  C   UNL     1      29.033 -13.650 -15.428  1.00  0.00    -0.027 C 
BRANCH  20  21
HETATM   21  C   UNL     1      29.130 -15.094 -15.003  1.00  0.00     0.053 C 
BRANCH  21  22
HETATM   22  C   UNL     1      30.553 -15.591 -15.107  1.00  0.00    -0.027 C 
HETATM   23  C   UNL     1      31.028 -16.530 -15.949  1.00  0.00    -0.031 C 
BRANCH  23  24
HETATM   24  C   UNL     1      30.235 -17.309 -16.965  1.00  0.00     0.022 C 
HETATM   25  C   UNL     1      30.486 -18.809 -16.876  1.00  0.00     0.009 C 
ENDBRANCH  23  24
ENDBRANCH  21  22
ENDBRANCH  20  21
ENDBRANCH  18  19
ENDBRANCH  17  18
ENDBRANCH  15  16
ENDBRANCH  14  15
ENDBRANCH  12  13
ENDBRANCH  11  12
ENDBRANCH   9  10
ENDBRANCH   8   9
ENDBRANCH   6   7
ENDBRANCH   5   6
ENDBRANCH   3   5
ENDBRANCH   1   3
TORSDOF 15
ENDMDL
MODEL 14
REMARK VINA RESULT:      -4.6     24.801     26.486
REMARK  15 active torsions:
REMARK  status: ('A' for Active; 'I' for Inactive)
REMARK    1  A    between atoms: O_1  and  C_23 
REMARK    2  A    between atoms: C_3  and  C_7 
REMARK    3  A    between atoms: C_3  and  C_8 
REMARK    4  A    between atoms: C_4  and  C_10 
REMARK    5  A    between atoms: C_4  and  C_11 
REMARK    6  A    between atoms: C_5  and  C_12 
REMARK    7  A    between atoms: C_5  and  C_13 
REMARK    8  A    between atoms: C_6  and  C_15 
REMARK    9  A    between atoms: C_6  and  C_16 
REMARK   10  A    between atoms: C_7  and  C_23 
REMARK   11  A    between atoms: C_9  and  C_17 
REMARK   12  A    between atoms: C_9  and  C_18 
REMARK   13  A    between atoms: C_14  and  C_19 
REMARK   14  A    between atoms: C_14  and  C_20 
REMARK   15  A    between atoms: C_21  and  C_22 
ROOT
HETATM    1  O   UNL     1      32.437 -20.586  -9.925  1.00  0.00    -0.776 OA
HETATM    2  H   UNL     1      32.801 -21.067  -9.169  1.00  0.00     0.167 HD
ENDROOT
BRANCH   1   3
HETATM    3  C   UNL     1      31.113 -20.581 -10.185  1.00  0.00     0.139 C 
HETATM    4  O   UNL     1      30.707 -20.862 -11.304  1.00  0.00    -0.650 OA
BRANCH   3   5
HETATM    5  C   UNL     1      30.140 -20.233  -9.094  1.00  0.00     0.113 C 
BRANCH   5   6
HETATM    6  C   UNL     1      30.876 -19.824  -7.814  1.00  0.00     0.037 C 
BRANCH   6   7
HETATM    7  C   UNL     1      30.181 -18.660  -7.149  1.00  0.00    -0.030 C 
HETATM    8  C   UNL     1      30.166 -17.377  -7.567  1.00  0.00    -0.027 C 
BRANCH   8   9
HETATM    9  C   UNL     1      30.837 -16.799  -8.795  1.00  0.00     0.053 C 
BRANCH   9  10
HETATM   10  C   UNL     1      32.291 -16.509  -8.525  1.00  0.00    -0.027 C 
HETATM   11  C   UNL     1      32.826 -15.290  -8.331  1.00  0.00    -0.027 C 
BRANCH  11  12
HETATM   12  C   UNL     1      32.058 -13.994  -8.292  1.00  0.00     0.053 C 
BRANCH  12  13
HETATM   13  C   UNL     1      31.829 -13.462  -9.685  1.00  0.00    -0.027 C 
HETATM   14  C   UNL     1      30.809 -12.682 -10.089  1.00  0.00    -0.027 C 
BRANCH  14  15
HETATM   15  C   UNL     1      29.655 -12.220  -9.239  1.00  0.00     0.053 C 
BRANCH  15  16
HETATM   16  C   UNL     1      28.589 -13.292  -9.253  1.00  0.00    -0.027 C 
HETATM   17  C   UNL     1      28.200 -14.087  -8.235  1.00  0.00    -0.027 C 
BRANCH  17  18
HETATM   18  C   UNL     1      28.727 -14.082  -6.825  1.00  0.00     0.053 C 
BRANCH  18  19
HETATM   19  C   UNL     1      28.127 -12.943  -6.034  1.00  0.00    -0.027 C 
HETATM   20  C   UNL     1      28.742 -12.163  -5.122  1.00  0.00    -0.027 C 
BRANCH  20  21
HETATM   21  C   UNL     1      30.194 -12.209  -4.716  1.00  0.00     0.053 C 
BRANCH  21  22
HETATM   22  C   UNL     1      31.066 -11.554  -5.762  1.00  0.00    -0.027 C 
HETATM   23  C   UNL     1      32.324 -11.097  -5.604  1.00  0.00    -0.031 C 
BRANCH  23  24
HETATM   24  C   UNL     1      33.136 -11.123  -4.335  1.00  0.00     0.022 C 
HETATM   25  C   UNL     1      34.521 -10.516  -4.517  1.00  0.00     0.009 C 
ENDBRANCH  23  24
ENDBRANCH  21  22
ENDBRANCH  20  21
ENDBRANCH  18  19
ENDBRANCH  17  18
ENDBRANCH  15  16
ENDBRANCH  14  15
ENDBRANCH  12  13
ENDBRANCH  11  12
ENDBRANCH   9  10
ENDBRANCH   8   9
ENDBRANCH   6   7
ENDBRANCH   5   6
ENDBRANCH   3   5
ENDBRANCH   1   3
TORSDOF 15
ENDMDL
MODEL 15
REMARK VINA RESULT:      -4.5     24.367     26.146
REMARK  15 active torsions:
REMARK  status: ('A' for Active; 'I' for Inactive)
REMARK    1  A    between atoms: O_1  and  C_23 
REMARK    2  A    between atoms: C_3  and  C_7 
REMARK    3  A    between atoms: C_3  and  C_8 
REMARK    4  A    between atoms: C_4  and  C_10 
REMARK    5  A    between atoms: C_4  and  C_11 
REMARK    6  A    between atoms: C_5  and  C_12 
REMARK    7  A    between atoms: C_5  and  C_13 
REMARK    8  A    between atoms: C_6  and  C_15 
REMARK    9  A    between atoms: C_6  and  C_16 
REMARK   10  A    between atoms: C_7  and  C_23 
REMARK   11  A    between atoms: C_9  and  C_17 
REMARK   12  A    between atoms: C_9  and  C_18 
REMARK   13  A    between atoms: C_14  and  C_19 
REMARK   14  A    between atoms: C_14  and  C_20 
REMARK   15  A    between atoms: C_21  and  C_22 
ROOT
HETATM    1  O   UNL     1      32.647 -20.310  -9.437  1.00  0.00    -0.776 OA
HETATM    2  H   UNL     1      32.867 -19.707  -8.713  1.00  0.00     0.167 HD
ENDROOT
BRANCH   1   3
HETATM    3  C   UNL     1      31.366 -20.534  -9.801  1.00  0.00     0.139 C 
HETATM    4  O   UNL     1      31.106 -20.876 -10.946  1.00  0.00    -0.650 OA
BRANCH   3   5
HETATM    5  C   UNL     1      30.263 -20.365  -8.795  1.00  0.00     0.113 C 
BRANCH   5   6
HETATM    6  C   UNL     1      30.826 -19.944  -7.432  1.00  0.00     0.037 C 
BRANCH   6   7
HETATM    7  C   UNL     1      30.202 -18.647  -6.977  1.00  0.00    -0.030 C 
HETATM    8  C   UNL     1      30.534 -17.401  -7.377  1.00  0.00    -0.027 C 
BRANCH   8   9
HETATM    9  C   UNL     1      31.605 -17.007  -8.371  1.00  0.00     0.053 C 
BRANCH   9  10
HETATM   10  C   UNL     1      30.990 -16.446  -9.628  1.00  0.00    -0.027 C 
HETATM   11  C   UNL     1      30.905 -15.142  -9.947  1.00  0.00    -0.027 C 
BRANCH  11  12
HETATM   12  C   UNL     1      31.462 -14.005  -9.131  1.00  0.00     0.053 C 
BRANCH  12  13
HETATM   13  C   UNL     1      30.555 -12.802  -9.194  1.00  0.00    -0.027 C 
HETATM   14  C   UNL     1      29.581 -12.484  -8.320  1.00  0.00    -0.027 C 
BRANCH  14  15
HETATM   15  C   UNL     1      29.164 -13.295  -7.123  1.00  0.00     0.053 C 
BRANCH  15  16
HETATM   16  C   UNL     1      28.964 -12.357  -5.953  1.00  0.00    -0.027 C 
HETATM   17  C   UNL     1      29.791 -12.146  -4.909  1.00  0.00    -0.027 C 
BRANCH  17  18
HETATM   18  C   UNL     1      31.132 -12.786  -4.668  1.00  0.00     0.053 C 
BRANCH  18  19
HETATM   19  C   UNL     1      32.178 -11.736  -4.370  1.00  0.00    -0.027 C 
HETATM   20  C   UNL     1      32.855 -10.977  -5.255  1.00  0.00    -0.027 C 
BRANCH  20  21
HETATM   21  C   UNL     1      32.687 -10.960  -6.754  1.00  0.00     0.053 C 
BRANCH  21  22
HETATM   22  C   UNL     1      33.840 -11.660  -7.433  1.00  0.00    -0.027 C 
HETATM   23  C   UNL     1      34.258 -11.499  -8.704  1.00  0.00    -0.031 C 
BRANCH  23  24
HETATM   24  C   UNL     1      33.648 -10.591  -9.740  1.00  0.00     0.022 C 
HETATM   25  C   UNL     1      33.513 -11.266 -11.100  1.00  0.00     0.009 C 
ENDBRANCH  23  24
ENDBRANCH  21  22
ENDBRANCH  20  21
ENDBRANCH  18  19
ENDBRANCH  17  18
ENDBRANCH  15  16
ENDBRANCH  14  15
ENDBRANCH  12  13
ENDBRANCH  11  12
ENDBRANCH   9  10
ENDBRANCH   8   9
ENDBRANCH   6   7
ENDBRANCH   5   6
ENDBRANCH   3   5
ENDBRANCH   1   3
TORSDOF 15
ENDMDL
MODEL 16
REMARK VINA RESULT:      -4.5      5.267      9.293
REMARK  15 active torsions:
REMARK  status: ('A' for Active; 'I' for Inactive)
REMARK    1  A    between atoms: O_1  and  C_23 
REMARK    2  A    between atoms: C_3  and  C_7 
REMARK    3  A    between atoms: C_3  and  C_8 
REMARK    4  A    between atoms: C_4  and  C_10 
REMARK    5  A    between atoms: C_4  and  C_11 
REMARK    6  A    between atoms: C_5  and  C_12 
REMARK    7  A    between atoms: C_5  and  C_13 
REMARK    8  A    between atoms: C_6  and  C_15 
REMARK    9  A    between atoms: C_6  and  C_16 
REMARK   10  A    between atoms: C_7  and  C_23 
REMARK   11  A    between atoms: C_9  and  C_17 
REMARK   12  A    between atoms: C_9  and  C_18 
REMARK   13  A    between atoms: C_14  and  C_19 
REMARK   14  A    between atoms: C_14  and  C_20 
REMARK   15  A    between atoms: C_21  and  C_22 
ROOT
HETATM    1  O   UNL     1      38.761   6.304  -5.238  1.00  0.00    -0.776 OA
HETATM    2  H   UNL     1      37.923   5.992  -5.608  1.00  0.00     0.167 HD
ENDROOT
BRANCH   1   3
HETATM    3  C   UNL     1      39.095   7.612  -5.260  1.00  0.00     0.139 C 
HETATM    4  O   UNL     1      39.451   8.171  -4.232  1.00  0.00    -0.650 OA
BRANCH   3   5
HETATM    5  C   UNL     1      39.033   8.377  -6.552  1.00  0.00     0.113 C 
BRANCH   5   6
HETATM    6  C   UNL     1      39.498   7.508  -7.725  1.00  0.00     0.037 C 
BRANCH   6   7
HETATM    7  C   UNL     1      40.665   8.152  -8.436  1.00  0.00    -0.030 C 
HETATM    8  C   UNL     1      40.682   8.633  -9.697  1.00  0.00    -0.027 C 
BRANCH   8   9
HETATM    9  C   UNL     1      39.545   8.643 -10.695  1.00  0.00     0.053 C 
BRANCH   9  10
HETATM   10  C   UNL     1      39.479   7.337 -11.446  1.00  0.00    -0.027 C 
HETATM   11  C   UNL     1      39.336   7.202 -12.777  1.00  0.00    -0.027 C 
BRANCH  11  12
HETATM   12  C   UNL     1      39.275   8.334 -13.768  1.00  0.00     0.053 C 
BRANCH  12  13
HETATM   13  C   UNL     1      38.141   8.135 -14.743  1.00  0.00    -0.027 C 
HETATM   14  C   UNL     1      38.227   7.608 -15.979  1.00  0.00    -0.027 C 
BRANCH  14  15
HETATM   15  C   UNL     1      39.489   7.152 -16.662  1.00  0.00     0.053 C 
BRANCH  15  16
HETATM   16  C   UNL     1      39.329   7.357 -18.153  1.00  0.00    -0.027 C 
HETATM   17  C   UNL     1      39.443   8.506 -18.849  1.00  0.00    -0.027 C 
BRANCH  17  18
HETATM   18  C   UNL     1      39.780   9.869 -18.304  1.00  0.00     0.053 C 
BRANCH  18  19
HETATM   19  C   UNL     1      40.935   9.785 -17.333  1.00  0.00    -0.027 C 
HETATM   20  C   UNL     1      41.298  10.696 -16.408  1.00  0.00    -0.027 C 
BRANCH  20  21
HETATM   21  C   UNL     1      40.598  11.994 -16.086  1.00  0.00     0.053 C 
BRANCH  21  22
HETATM   22  C   UNL     1      39.580  11.798 -14.987  1.00  0.00    -0.027 C 
HETATM   23  C   UNL     1      39.803  11.812 -13.658  1.00  0.00    -0.031 C 
BRANCH  23  24
HETATM   24  C   UNL     1      41.130  12.008 -12.972  1.00  0.00     0.022 C 
HETATM   25  C   UNL     1      41.865  10.694 -12.738  1.00  0.00     0.009 C 
ENDBRANCH  23  24
ENDBRANCH  21  22
ENDBRANCH  20  21
ENDBRANCH  18  19
ENDBRANCH  17  18
ENDBRANCH  15  16
ENDBRANCH  14  15
ENDBRANCH  12  13
ENDBRANCH  11  12
ENDBRANCH   9  10
ENDBRANCH   8   9
ENDBRANCH   6   7
ENDBRANCH   5   6
ENDBRANCH   3   5
ENDBRANCH   1   3
TORSDOF 15
ENDMDL
MODEL 17
REMARK VINA RESULT:      -4.5      5.881      7.767
REMARK  15 active torsions:
REMARK  status: ('A' for Active; 'I' for Inactive)
REMARK    1  A    between atoms: O_1  and  C_23 
REMARK    2  A    between atoms: C_3  and  C_7 
REMARK    3  A    between atoms: C_3  and  C_8 
REMARK    4  A    between atoms: C_4  and  C_10 
REMARK    5  A    between atoms: C_4  and  C_11 
REMARK    6  A    between atoms: C_5  and  C_12 
REMARK    7  A    between atoms: C_5  and  C_13 
REMARK    8  A    between atoms: C_6  and  C_15 
REMARK    9  A    between atoms: C_6  and  C_16 
REMARK   10  A    between atoms: C_7  and  C_23 
REMARK   11  A    between atoms: C_9  and  C_17 
REMARK   12  A    between atoms: C_9  and  C_18 
REMARK   13  A    between atoms: C_14  and  C_19 
REMARK   14  A    between atoms: C_14  and  C_20 
REMARK   15  A    between atoms: C_21  and  C_22 
ROOT
HETATM    1  O   UNL     1      39.721  11.683 -19.068  1.00  0.00    -0.776 OA
HETATM    2  H   UNL     1      40.211  12.513 -19.146  1.00  0.00     0.167 HD
ENDROOT
BRANCH   1   3
HETATM    3  C   UNL     1      40.048  10.600 -19.806  1.00  0.00     0.139 C 
HETATM    4  O   UNL     1      39.347  10.270 -20.752  1.00  0.00    -0.650 OA
BRANCH   3   5
HETATM    5  C   UNL     1      41.276   9.807 -19.462  1.00  0.00     0.113 C 
BRANCH   5   6
HETATM    6  C   UNL     1      41.095   9.066 -18.132  1.00  0.00     0.037 C 
BRANCH   6   7
HETATM    7  C   UNL     1      40.204   7.861 -18.311  1.00  0.00    -0.030 C 
HETATM    8  C   UNL     1      39.136   7.522 -17.558  1.00  0.00    -0.027 C 
BRANCH   8   9
HETATM    9  C   UNL     1      38.579   8.263 -16.361  1.00  0.00     0.053 C 
BRANCH   9  10
HETATM   10  C   UNL     1      38.707   7.433 -15.109  1.00  0.00    -0.027 C 
HETATM   11  C   UNL     1      39.768   7.417 -14.282  1.00  0.00    -0.027 C 
BRANCH  11  12
HETATM   12  C   UNL     1      41.000   8.271 -14.425  1.00  0.00     0.053 C 
BRANCH  12  13
HETATM   13  C   UNL     1      40.637   9.733 -14.498  1.00  0.00    -0.027 C 
HETATM   14  C   UNL     1      40.594  10.602 -13.471  1.00  0.00    -0.027 C 
BRANCH  14  15
HETATM   15  C   UNL     1      40.855  10.278 -12.024  1.00  0.00     0.053 C 
BRANCH  15  16
HETATM   16  C   UNL     1      39.655  10.711 -11.211  1.00  0.00    -0.027 C 
HETATM   17  C   UNL     1      38.526  10.015 -10.965  1.00  0.00    -0.027 C 
BRANCH  17  18
HETATM   18  C   UNL     1      38.198   8.621 -11.429  1.00  0.00     0.053 C 
BRANCH  18  19
HETATM   19  C   UNL     1      37.940   7.712 -10.250  1.00  0.00    -0.027 C 
HETATM   20  C   UNL     1      38.821   7.321  -9.307  1.00  0.00    -0.027 C 
BRANCH  20  21
HETATM   21  C   UNL     1      40.263   7.745  -9.178  1.00  0.00     0.053 C 
BRANCH  21  22
HETATM   22  C   UNL     1      40.420   8.800  -8.107  1.00  0.00    -0.027 C 
HETATM   23  C   UNL     1      40.204   8.657  -6.785  1.00  0.00    -0.031 C 
BRANCH  23  24
HETATM   24  C   UNL     1      39.737   7.410  -6.081  1.00  0.00     0.022 C 
HETATM   25  C   UNL     1      38.312   7.535  -5.557  1.00  0.00     0.009 C 
ENDBRANCH  23  24
ENDBRANCH  21  22
ENDBRANCH  20  21
ENDBRANCH  18  19
ENDBRANCH  17  18
ENDBRANCH  15  16
ENDBRANCH  14  15
ENDBRANCH  12  13
ENDBRANCH  11  12
ENDBRANCH   9  10
ENDBRANCH   8   9
ENDBRANCH   6   7
ENDBRANCH   5   6
ENDBRANCH   3   5
ENDBRANCH   1   3
TORSDOF 15
ENDMDL
MODEL 18
REMARK VINA RESULT:      -4.5      8.061     12.487
REMARK  15 active torsions:
REMARK  status: ('A' for Active; 'I' for Inactive)
REMARK    1  A    between atoms: O_1  and  C_23 
REMARK    2  A    between atoms: C_3  and  C_7 
REMARK    3  A    between atoms: C_3  and  C_8 
REMARK    4  A    between atoms: C_4  and  C_10 
REMARK    5  A    between atoms: C_4  and  C_11 
REMARK    6  A    between atoms: C_5  and  C_12 
REMARK    7  A    between atoms: C_5  and  C_13 
REMARK    8  A    between atoms: C_6  and  C_15 
REMARK    9  A    between atoms: C_6  and  C_16 
REMARK   10  A    between atoms: C_7  and  C_23 
REMARK   11  A    between atoms: C_9  and  C_17 
REMARK   12  A    between atoms: C_9  and  C_18 
REMARK   13  A    between atoms: C_14  and  C_19 
REMARK   14  A    between atoms: C_14  and  C_20 
REMARK   15  A    between atoms: C_21  and  C_22 
ROOT
HETATM    1  O   UNL     1      41.137  12.329 -13.831  1.00  0.00    -0.776 OA
HETATM    2  H   UNL     1      41.449  13.243 -13.888  1.00  0.00     0.167 HD
ENDROOT
BRANCH   1   3
HETATM    3  C   UNL     1      41.854  11.378 -13.195  1.00  0.00     0.139 C 
HETATM    4  O   UNL     1      43.054  11.533 -13.017  1.00  0.00    -0.650 OA
BRANCH   3   5
HETATM    5  C   UNL     1      41.172  10.133 -12.705  1.00  0.00     0.113 C 
BRANCH   5   6
HETATM    6  C   UNL     1      41.023   9.109 -13.836  1.00  0.00     0.037 C 
BRANCH   6   7
HETATM    7  C   UNL     1      40.236   7.908 -13.367  1.00  0.00    -0.030 C 
HETATM    8  C   UNL     1      39.149   7.369 -13.958  1.00  0.00    -0.027 C 
BRANCH   8   9
HETATM    9  C   UNL     1      38.461   7.835 -15.223  1.00  0.00     0.053 C 
BRANCH   9  10
HETATM   10  C   UNL     1      37.577   9.025 -14.947  1.00  0.00    -0.027 C 
HETATM   11  C   UNL     1      37.262   9.991 -15.829  1.00  0.00    -0.027 C 
BRANCH  11  12
HETATM   12  C   UNL     1      37.689  10.029 -17.273  1.00  0.00     0.053 C 
BRANCH  12  13
HETATM   13  C   UNL     1      38.582  11.216 -17.539  1.00  0.00    -0.027 C 
HETATM   14  C   UNL     1      39.927  11.233 -17.504  1.00  0.00    -0.027 C 
BRANCH  14  15
HETATM   15  C   UNL     1      40.820  10.075 -17.142  1.00  0.00     0.053 C 
BRANCH  15  16
HETATM   16  C   UNL     1      41.282   9.407 -18.418  1.00  0.00    -0.027 C 
HETATM   17  C   UNL     1      40.770   8.311 -19.013  1.00  0.00    -0.027 C 
BRANCH  17  18
HETATM   18  C   UNL     1      39.592   7.494 -18.553  1.00  0.00     0.053 C 
BRANCH  18  19
HETATM   19  C   UNL     1      38.912   6.829 -19.728  1.00  0.00    -0.027 C 
HETATM   20  C   UNL     1      37.977   7.359 -20.542  1.00  0.00    -0.027 C 
BRANCH  20  21
HETATM   21  C   UNL     1      37.428   8.764 -20.505  1.00  0.00     0.053 C 
BRANCH  21  22
HETATM   22  C   UNL     1      38.353   9.722 -21.219  1.00  0.00    -0.027 C 
HETATM   23  C   UNL     1      38.804   9.628 -22.485  1.00  0.00    -0.031 C 
BRANCH  23  24
HETATM   24  C   UNL     1      38.498   8.528 -23.468  1.00  0.00     0.022 C 
HETATM   25  C   UNL     1      39.712   7.657 -23.766  1.00  0.00     0.009 C 
ENDBRANCH  23  24
ENDBRANCH  21  22
ENDBRANCH  20  21
ENDBRANCH  18  19
ENDBRANCH  17  18
ENDBRANCH  15  16
ENDBRANCH  14  15
ENDBRANCH  12  13
ENDBRANCH  11  12
ENDBRANCH   9  10
ENDBRANCH   8   9
ENDBRANCH   6   7
ENDBRANCH   5   6
ENDBRANCH   3   5
ENDBRANCH   1   3
TORSDOF 15
ENDMDL
MODEL 19
REMARK VINA RESULT:      -4.5      6.170     10.743
REMARK  15 active torsions:
REMARK  status: ('A' for Active; 'I' for Inactive)
REMARK    1  A    between atoms: O_1  and  C_23 
REMARK    2  A    between atoms: C_3  and  C_7 
REMARK    3  A    between atoms: C_3  and  C_8 
REMARK    4  A    between atoms: C_4  and  C_10 
REMARK    5  A    between atoms: C_4  and  C_11 
REMARK    6  A    between atoms: C_5  and  C_12 
REMARK    7  A    between atoms: C_5  and  C_13 
REMARK    8  A    between atoms: C_6  and  C_15 
REMARK    9  A    between atoms: C_6  and  C_16 
REMARK   10  A    between atoms: C_7  and  C_23 
REMARK   11  A    between atoms: C_9  and  C_17 
REMARK   12  A    between atoms: C_9  and  C_18 
REMARK   13  A    between atoms: C_14  and  C_19 
REMARK   14  A    between atoms: C_14  and  C_20 
REMARK   15  A    between atoms: C_21  and  C_22 
ROOT
HETATM    1  O   UNL     1      43.643  12.011  -8.214  1.00  0.00    -0.776 OA
HETATM    2  H   UNL     1      43.505  12.641  -7.493  1.00  0.00     0.167 HD
ENDROOT
BRANCH   1   3
HETATM    3  C   UNL     1      42.610  11.538  -8.943  1.00  0.00     0.139 C 
HETATM    4  O   UNL     1      42.030  12.271  -9.732  1.00  0.00    -0.650 OA
BRANCH   3   5
HETATM    5  C   UNL     1      42.177  10.108  -8.785  1.00  0.00     0.113 C 
BRANCH   5   6
HETATM    6  C   UNL     1      40.671  10.019  -8.511  1.00  0.00     0.037 C 
BRANCH   6   7
HETATM    7  C   UNL     1      40.315   8.674  -7.925  1.00  0.00    -0.030 C 
HETATM    8  C   UNL     1      39.848   7.596  -8.591  1.00  0.00    -0.027 C 
BRANCH   8   9
HETATM    9  C   UNL     1      39.571   7.478 -10.074  1.00  0.00     0.053 C 
BRANCH   9  10
HETATM   10  C   UNL     1      38.092   7.573 -10.353  1.00  0.00    -0.027 C 
HETATM   11  C   UNL     1      37.464   8.622 -10.913  1.00  0.00    -0.027 C 
BRANCH  11  12
HETATM   12  C   UNL     1      38.134   9.873 -11.420  1.00  0.00     0.053 C 
BRANCH  12  13
HETATM   13  C   UNL     1      37.749  10.148 -12.852  1.00  0.00    -0.027 C 
HETATM   14  C   UNL     1      38.256   9.552 -13.948  1.00  0.00    -0.027 C 
BRANCH  14  15
HETATM   15  C   UNL     1      39.351   8.519 -13.970  1.00  0.00     0.053 C 
BRANCH  15  16
HETATM   16  C   UNL     1      38.815   7.264 -14.623  1.00  0.00    -0.027 C 
HETATM   17  C   UNL     1      38.967   6.866 -15.903  1.00  0.00    -0.027 C 
BRANCH  17  18
HETATM   18  C   UNL     1      39.730   7.575 -16.991  1.00  0.00     0.053 C 
BRANCH  18  19
HETATM   19  C   UNL     1      38.830   8.532 -17.737  1.00  0.00    -0.027 C 
HETATM   20  C   UNL     1      38.313   8.378 -18.974  1.00  0.00    -0.027 C 
BRANCH  20  21
HETATM   21  C   UNL     1      38.470   7.184 -19.883  1.00  0.00     0.053 C 
BRANCH  21  22
HETATM   22  C   UNL     1      39.654   7.362 -20.805  1.00  0.00    -0.027 C 
HETATM   23  C   UNL     1      39.656   7.921 -22.030  1.00  0.00    -0.031 C 
BRANCH  23  24
HETATM   24  C   UNL     1      38.465   8.481 -22.763  1.00  0.00     0.022 C 
HETATM   25  C   UNL     1      38.152   9.915 -22.358  1.00  0.00     0.009 C 
ENDBRANCH  23  24
ENDBRANCH  21  22
ENDBRANCH  20  21
ENDBRANCH  18  19
ENDBRANCH  17  18
ENDBRANCH  15  16
ENDBRANCH  14  15
ENDBRANCH  12  13
ENDBRANCH  11  12
ENDBRANCH   9  10
ENDBRANCH   8   9
ENDBRANCH   6   7
ENDBRANCH   5   6
ENDBRANCH   3   5
ENDBRANCH   1   3
TORSDOF 15
ENDMDL
MODEL 20
REMARK VINA RESULT:      -4.4     25.525     28.221
REMARK  15 active torsions:
REMARK  status: ('A' for Active; 'I' for Inactive)
REMARK    1  A    between atoms: O_1  and  C_23 
REMARK    2  A    between atoms: C_3  and  C_7 
REMARK    3  A    between atoms: C_3  and  C_8 
REMARK    4  A    between atoms: C_4  and  C_10 
REMARK    5  A    between atoms: C_4  and  C_11 
REMARK    6  A    between atoms: C_5  and  C_12 
REMARK    7  A    between atoms: C_5  and  C_13 
REMARK    8  A    between atoms: C_6  and  C_15 
REMARK    9  A    between atoms: C_6  and  C_16 
REMARK   10  A    between atoms: C_7  and  C_23 
REMARK   11  A    between atoms: C_9  and  C_17 
REMARK   12  A    between atoms: C_9  and  C_18 
REMARK   13  A    between atoms: C_14  and  C_19 
REMARK   14  A    between atoms: C_14  and  C_20 
REMARK   15  A    between atoms: C_21  and  C_22 
ROOT
HETATM    1  O   UNL     1      31.861 -19.933 -13.363  1.00  0.00    -0.776 OA
HETATM    2  H   UNL     1      32.208 -20.729 -12.935  1.00  0.00     0.167 HD
ENDROOT
BRANCH   1   3
HETATM    3  C   UNL     1      30.554 -19.819 -13.681  1.00  0.00     0.139 C 
HETATM    4  O   UNL     1      29.834 -20.807 -13.679  1.00  0.00    -0.650 OA
BRANCH   3   5
HETATM    5  C   UNL     1      29.988 -18.473 -14.034  1.00  0.00     0.113 C 
BRANCH   5   6
HETATM    6  C   UNL     1      30.995 -17.651 -14.847  1.00  0.00     0.037 C 
BRANCH   6   7
HETATM    7  C   UNL     1      30.403 -17.247 -16.176  1.00  0.00    -0.030 C 
HETATM    8  C   UNL     1      30.920 -16.369 -17.062  1.00  0.00    -0.027 C 
BRANCH   8   9
HETATM    9  C   UNL     1      32.209 -15.585 -16.937  1.00  0.00     0.053 C 
BRANCH   9  10
HETATM   10  C   UNL     1      32.156 -14.330 -17.771  1.00  0.00    -0.027 C 
HETATM   11  C   UNL     1      32.541 -13.105 -17.372  1.00  0.00    -0.027 C 
BRANCH  11  12
HETATM   12  C   UNL     1      33.149 -12.772 -16.034  1.00  0.00     0.053 C 
BRANCH  12  13
HETATM   13  C   UNL     1      32.132 -12.130 -15.125  1.00  0.00    -0.027 C 
HETATM   14  C   UNL     1      31.469 -12.725 -14.115  1.00  0.00    -0.027 C 
BRANCH  14  15
HETATM   15  C   UNL     1      31.573 -14.173 -13.717  1.00  0.00     0.053 C 
BRANCH  15  16
HETATM   16  C   UNL     1      30.463 -14.484 -12.737  1.00  0.00    -0.027 C 
HETATM   17  C   UNL     1      29.169 -14.751 -13.008  1.00  0.00    -0.027 C 
BRANCH  17  18
HETATM   18  C   UNL     1      28.520 -14.823 -14.365  1.00  0.00     0.053 C 
BRANCH  18  19
HETATM   19  C   UNL     1      27.746 -13.558 -14.654  1.00  0.00    -0.027 C 
HETATM   20  C   UNL     1      27.931 -12.699 -15.677  1.00  0.00    -0.027 C 
BRANCH  20  21
HETATM   21  C   UNL     1      28.922 -12.829 -16.807  1.00  0.00     0.053 C 
BRANCH  21  22
HETATM   22  C   UNL     1      28.407 -13.774 -17.867  1.00  0.00    -0.027 C 
HETATM   23  C   UNL     1      28.693 -13.756 -19.184  1.00  0.00    -0.031 C 
BRANCH  23  24
HETATM   24  C   UNL     1      29.582 -12.769 -19.895  1.00  0.00     0.022 C 
HETATM   25  C   UNL     1      28.804 -11.590 -20.467  1.00  0.00     0.009 C 
ENDBRANCH  23  24
ENDBRANCH  21  22
ENDBRANCH  20  21
ENDBRANCH  18  19
ENDBRANCH  17  18
ENDBRANCH  15  16
ENDBRANCH  14  15
ENDBRANCH  12  13
ENDBRANCH  11  12
ENDBRANCH   9  10
ENDBRANCH   8   9
ENDBRANCH   6   7
ENDBRANCH   5   6
ENDBRANCH   3   5
ENDBRANCH   1   3
TORSDOF 15
ENDMDL
