MODEL 1
REMARK VINA RESULT:      -5.3      0.000      0.000
REMARK  15 active torsions:
REMARK  status: ('A' for Active; 'I' for Inactive)
REMARK    1  A    between atoms: O_1  and  C_22 
REMARK    2  A    between atoms: C_3  and  C_4 
REMARK    3  A    between atoms: C_3  and  C_5 
REMARK    4  A    between atoms: C_4  and  C_6 
REMARK    5  A    between atoms: C_5  and  C_7 
REMARK    6  A    between atoms: C_9  and  C_10 
REMARK    7  A    between atoms: C_9  and  C_13 
REMARK    8  A    between atoms: C_10  and  C_14 
REMARK    9  A    between atoms: C_11  and  C_12 
REMARK   10  A    between atoms: C_12  and  C_16 
REMARK   11  A    between atoms: C_13  and  C_22 
REMARK   12  A    between atoms: C_15  and  C_17 
REMARK   13  A    between atoms: C_15  and  C_20 
REMARK   14  A    between atoms: C_18  and  C_19 
REMARK   15  A    between atoms: C_18  and  C_21 
ROOT
HETATM    1  O   UNL     1      39.533   6.272 -20.910  1.00  0.00    -0.776 OA
HETATM    2  H   UNL     1      40.376   5.833 -20.728  1.00  0.00     0.167 HD
ENDROOT
BRANCH   1   3
HETATM    3  C   UNL     1      39.465   7.603 -21.125  1.00  0.00     0.139 C 
HETATM    4  O   UNL     1      38.687   8.050 -21.956  1.00  0.00    -0.650 OA
BRANCH   3   5
HETATM    5  C   UNL     1      40.356   8.532 -20.348  1.00  0.00     0.110 C 
BRANCH   5   6
HETATM    6  C   UNL     1      40.635   8.022 -18.927  1.00  0.00     0.014 C 
BRANCH   6   7
HETATM    7  C   UNL     1      39.501   8.351 -17.947  1.00  0.00     0.027 C 
BRANCH   7   8
HETATM    8  C   UNL     1      39.250   7.169 -17.045  1.00  0.00    -0.030 C 
HETATM    9  C   UNL     1      39.569   7.108 -15.738  1.00  0.00    -0.027 C 
BRANCH   9  10
HETATM   10  C   UNL     1      40.209   8.217 -14.942  1.00  0.00     0.053 C 
BRANCH  10  11
HETATM   11  C   UNL     1      39.220   8.849 -13.988  1.00  0.00    -0.027 C 
HETATM   12  C   UNL     1      38.886   8.424 -12.752  1.00  0.00    -0.027 C 
BRANCH  12  13
HETATM   13  C   UNL     1      39.440   7.225 -12.024  1.00  0.00     0.053 C 
BRANCH  13  14
HETATM   14  C   UNL     1      38.757   7.072 -10.686  1.00  0.00    -0.027 C 
HETATM   15  C   UNL     1      39.334   7.310  -9.491  1.00  0.00    -0.027 C 
BRANCH  15  16
HETATM   16  C   UNL     1      40.763   7.751  -9.306  1.00  0.00     0.053 C 
BRANCH  16  17
HETATM   17  C   UNL     1      40.911   9.240  -9.501  1.00  0.00    -0.027 C 
HETATM   18  C   UNL     1      40.929  10.130  -8.494  1.00  0.00    -0.030 C 
BRANCH  18  19
HETATM   19  C   UNL     1      40.793   9.779  -7.034  1.00  0.00     0.027 C 
BRANCH  19  20
HETATM   20  C   UNL     1      39.491  10.369  -6.482  1.00  0.00     0.004 C 
BRANCH  20  21
HETATM   21  C   UNL     1      38.277   9.543  -6.921  1.00  0.00    -0.000 C 
BRANCH  21  22
HETATM   22  C   UNL     1      37.230  10.430  -7.604  1.00  0.00    -0.005 C 
HETATM   23  C   UNL     1      37.281  10.275  -9.121  1.00  0.00     0.005 C 
ENDBRANCH  21  22
ENDBRANCH  20  21
ENDBRANCH  19  20
ENDBRANCH  18  19
ENDBRANCH  16  17
ENDBRANCH  15  16
ENDBRANCH  13  14
ENDBRANCH  12  13
ENDBRANCH  10  11
ENDBRANCH   9  10
ENDBRANCH   7   8
ENDBRANCH   6   7
ENDBRANCH   5   6
ENDBRANCH   3   5
ENDBRANCH   1   3
TORSDOF 15
ENDMDL
MODEL 2
REMARK VINA RESULT:      -5.1      2.966      4.488
REMARK  15 active torsions:
REMARK  status: ('A' for Active; 'I' for Inactive)
REMARK    1  A    between atoms: O_1  and  C_22 
REMARK    2  A    between atoms: C_3  and  C_4 
REMARK    3  A    between atoms: C_3  and  C_5 
REMARK    4  A    between atoms: C_4  and  C_6 
REMARK    5  A    between atoms: C_5  and  C_7 
REMARK    6  A    between atoms: C_9  and  C_10 
REMARK    7  A    between atoms: C_9  and  C_13 
REMARK    8  A    between atoms: C_10  and  C_14 
REMARK    9  A    between atoms: C_11  and  C_12 
REMARK   10  A    between atoms: C_12  and  C_16 
REMARK   11  A    between atoms: C_13  and  C_22 
REMARK   12  A    between atoms: C_15  and  C_17 
REMARK   13  A    between atoms: C_15  and  C_20 
REMARK   14  A    between atoms: C_18  and  C_19 
REMARK   15  A    between atoms: C_18  and  C_21 
ROOT
HETATM    1  O   UNL     1      38.888   6.097 -15.094  1.00  0.00    -0.776 OA
HETATM    2  H   UNL     1      38.271   5.391 -15.332  1.00  0.00     0.167 HD
ENDROOT
BRANCH   1   3
HETATM    3  C   UNL     1      39.353   6.965 -16.018  1.00  0.00     0.139 C 
HETATM    4  O   UNL     1      39.493   6.607 -17.179  1.00  0.00    -0.650 OA
BRANCH   3   5
HETATM    5  C   UNL     1      39.710   8.368 -15.612  1.00  0.00     0.110 C 
BRANCH   5   6
HETATM    6  C   UNL     1      38.684   9.398 -16.106  1.00  0.00     0.014 C 
BRANCH   6   7
HETATM    7  C   UNL     1      37.265   9.107 -15.601  1.00  0.00     0.027 C 
BRANCH   7   8
HETATM    8  C   UNL     1      36.294  10.078 -16.226  1.00  0.00    -0.030 C 
HETATM    9  C   UNL     1      35.622  11.038 -15.565  1.00  0.00    -0.027 C 
BRANCH   9  10
HETATM   10  C   UNL     1      35.738  11.329 -14.090  1.00  0.00     0.053 C 
BRANCH  10  11
HETATM   11  C   UNL     1      36.363  12.685 -13.846  1.00  0.00    -0.027 C 
HETATM   12  C   UNL     1      37.643  12.951 -13.515  1.00  0.00    -0.027 C 
BRANCH  12  13
HETATM   13  C   UNL     1      38.758  11.954 -13.331  1.00  0.00     0.053 C 
BRANCH  13  14
HETATM   14  C   UNL     1      38.974  11.686 -11.860  1.00  0.00    -0.027 C 
HETATM   15  C   UNL     1      38.578  10.572 -11.211  1.00  0.00    -0.027 C 
BRANCH  15  16
HETATM   16  C   UNL     1      37.841   9.426 -11.853  1.00  0.00     0.053 C 
BRANCH  16  17
HETATM   17  C   UNL     1      38.778   8.304 -12.224  1.00  0.00    -0.027 C 
HETATM   18  C   UNL     1      39.040   7.252 -11.429  1.00  0.00    -0.030 C 
BRANCH  18  19
HETATM   19  C   UNL     1      38.451   7.043 -10.057  1.00  0.00     0.027 C 
BRANCH  19  20
HETATM   20  C   UNL     1      39.527   7.283  -8.993  1.00  0.00     0.004 C 
BRANCH  20  21
HETATM   21  C   UNL     1      39.228   8.545  -8.176  1.00  0.00    -0.000 C 
BRANCH  21  22
HETATM   22  C   UNL     1      40.379   9.552  -8.287  1.00  0.00    -0.005 C 
HETATM   23  C   UNL     1      41.489   9.024  -9.191  1.00  0.00     0.005 C 
ENDBRANCH  21  22
ENDBRANCH  20  21
ENDBRANCH  19  20
ENDBRANCH  18  19
ENDBRANCH  16  17
ENDBRANCH  15  16
ENDBRANCH  13  14
ENDBRANCH  12  13
ENDBRANCH  10  11
ENDBRANCH   9  10
ENDBRANCH   7   8
ENDBRANCH   6   7
ENDBRANCH   5   6
ENDBRANCH   3   5
ENDBRANCH   1   3
TORSDOF 15
ENDMDL
MODEL 3
REMARK VINA RESULT:      -5.1     24.551     26.584
REMARK  15 active torsions:
REMARK  status: ('A' for Active; 'I' for Inactive)
REMARK    1  A    between atoms: O_1  and  C_22 
REMARK    2  A    between atoms: C_3  and  C_4 
REMARK    3  A    between atoms: C_3  and  C_5 
REMARK    4  A    between atoms: C_4  and  C_6 
REMARK    5  A    between atoms: C_5  and  C_7 
REMARK    6  A    between atoms: C_9  and  C_10 
REMARK    7  A    between atoms: C_9  and  C_13 
REMARK    8  A    between atoms: C_10  and  C_14 
REMARK    9  A    between atoms: C_11  and  C_12 
REMARK   10  A    between atoms: C_12  and  C_16 
REMARK   11  A    between atoms: C_13  and  C_22 
REMARK   12  A    between atoms: C_15  and  C_17 
REMARK   13  A    between atoms: C_15  and  C_20 
REMARK   14  A    between atoms: C_18  and  C_19 
REMARK   15  A    between atoms: C_18  and  C_21 
ROOT
HETATM    1  O   UNL     1      31.772 -21.055 -15.010  1.00  0.00    -0.776 OA
HETATM    2  H   UNL     1      32.569 -21.157 -14.471  1.00  0.00     0.167 HD
ENDROOT
BRANCH   1   3
HETATM    3  C   UNL     1      30.719 -20.328 -14.578  1.00  0.00     0.139 C 
HETATM    4  O   UNL     1      29.967 -20.784 -13.730  1.00  0.00    -0.650 OA
BRANCH   3   5
HETATM    5  C   UNL     1      30.469 -18.961 -15.154  1.00  0.00     0.110 C 
BRANCH   5   6
HETATM    6  C   UNL     1      29.957 -17.969 -14.100  1.00  0.00     0.014 C 
BRANCH   6   7
HETATM    7  C   UNL     1      30.095 -16.508 -14.547  1.00  0.00     0.027 C 
BRANCH   7   8
HETATM    8  C   UNL     1      31.485 -16.011 -14.237  1.00  0.00    -0.030 C 
HETATM    9  C   UNL     1      32.260 -15.299 -15.076  1.00  0.00    -0.027 C 
BRANCH   9  10
HETATM   10  C   UNL     1      31.868 -14.853 -16.462  1.00  0.00     0.053 C 
BRANCH  10  11
HETATM   11  C   UNL     1      32.378 -15.816 -17.512  1.00  0.00    -0.027 C 
HETATM   12  C   UNL     1      31.655 -16.687 -18.246  1.00  0.00    -0.027 C 
BRANCH  12  13
HETATM   13  C   UNL     1      30.162 -16.890 -18.204  1.00  0.00     0.053 C 
BRANCH  13  14
HETATM   14  C   UNL     1      29.507 -16.149 -19.345  1.00  0.00    -0.027 C 
HETATM   15  C   UNL     1      28.765 -15.030 -19.217  1.00  0.00    -0.027 C 
BRANCH  15  16
HETATM   16  C   UNL     1      28.461 -14.353 -17.906  1.00  0.00     0.053 C 
BRANCH  16  17
HETATM   17  C   UNL     1      29.017 -12.952 -17.865  1.00  0.00    -0.027 C 
HETATM   18  C   UNL     1      29.231 -12.262 -16.731  1.00  0.00    -0.030 C 
BRANCH  18  19
HETATM   19  C   UNL     1      28.938 -12.776 -15.344  1.00  0.00     0.027 C 
BRANCH  19  20
HETATM   20  C   UNL     1      29.980 -12.230 -14.362  1.00  0.00     0.004 C 
BRANCH  20  21
HETATM   21  C   UNL     1      31.112 -11.506 -15.100  1.00  0.00    -0.000 C 
BRANCH  21  22
HETATM   22  C   UNL     1      32.395 -11.500 -14.261  1.00  0.00    -0.005 C 
HETATM   23  C   UNL     1      32.193 -12.238 -12.940  1.00  0.00     0.005 C 
ENDBRANCH  21  22
ENDBRANCH  20  21
ENDBRANCH  19  20
ENDBRANCH  18  19
ENDBRANCH  16  17
ENDBRANCH  15  16
ENDBRANCH  13  14
ENDBRANCH  12  13
ENDBRANCH  10  11
ENDBRANCH   9  10
ENDBRANCH   7   8
ENDBRANCH   6   7
ENDBRANCH   5   6
ENDBRANCH   3   5
ENDBRANCH   1   3
TORSDOF 15
ENDMDL
MODEL 4
REMARK VINA RESULT:      -5.1      1.669      3.002
REMARK  15 active torsions:
REMARK  status: ('A' for Active; 'I' for Inactive)
REMARK    1  A    between atoms: O_1  and  C_22 
REMARK    2  A    between atoms: C_3  and  C_4 
REMARK    3  A    between atoms: C_3  and  C_5 
REMARK    4  A    between atoms: C_4  and  C_6 
REMARK    5  A    between atoms: C_5  and  C_7 
REMARK    6  A    between atoms: C_9  and  C_10 
REMARK    7  A    between atoms: C_9  and  C_13 
REMARK    8  A    between atoms: C_10  and  C_14 
REMARK    9  A    between atoms: C_11  and  C_12 
REMARK   10  A    between atoms: C_12  and  C_16 
REMARK   11  A    between atoms: C_13  and  C_22 
REMARK   12  A    between atoms: C_15  and  C_17 
REMARK   13  A    between atoms: C_15  and  C_20 
REMARK   14  A    between atoms: C_18  and  C_19 
REMARK   15  A    between atoms: C_18  and  C_21 
ROOT
HETATM    1  O   UNL     1      39.597   6.724 -18.115  1.00  0.00    -0.776 OA
HETATM    2  H   UNL     1      40.192   6.829 -17.360  1.00  0.00     0.167 HD
ENDROOT
BRANCH   1   3
HETATM    3  C   UNL     1      38.934   7.777 -18.639  1.00  0.00     0.139 C 
HETATM    4  O   UNL     1      38.761   7.852 -19.847  1.00  0.00    -0.650 OA
BRANCH   3   5
HETATM    5  C   UNL     1      38.421   8.863 -17.734  1.00  0.00     0.110 C 
BRANCH   5   6
HETATM    6  C   UNL     1      39.011   8.772 -16.320  1.00  0.00     0.014 C 
BRANCH   6   7
HETATM    7  C   UNL     1      38.054   8.107 -15.322  1.00  0.00     0.027 C 
BRANCH   7   8
HETATM    8  C   UNL     1      38.813   7.119 -14.472  1.00  0.00    -0.030 C 
HETATM    9  C   UNL     1      39.338   7.380 -13.260  1.00  0.00    -0.027 C 
BRANCH   9  10
HETATM   10  C   UNL     1      39.239   8.696 -12.529  1.00  0.00     0.053 C 
BRANCH  10  11
HETATM   11  C   UNL     1      38.052   8.714 -11.591  1.00  0.00    -0.027 C 
HETATM   12  C   UNL     1      37.900   8.017 -10.447  1.00  0.00    -0.027 C 
BRANCH  12  13
HETATM   13  C   UNL     1      38.891   7.066  -9.825  1.00  0.00     0.053 C 
BRANCH  13  14
HETATM   14  C   UNL     1      39.967   7.842  -9.102  1.00  0.00    -0.027 C 
HETATM   15  C   UNL     1      40.165   7.831  -7.768  1.00  0.00    -0.027 C 
BRANCH  15  16
HETATM   16  C   UNL     1      39.328   7.052  -6.787  1.00  0.00     0.053 C 
BRANCH  16  17
HETATM   17  C   UNL     1      39.283   7.728  -5.440  1.00  0.00    -0.027 C 
HETATM   18  C   UNL     1      38.287   8.539  -5.041  1.00  0.00    -0.030 C 
BRANCH  18  19
HETATM   19  C   UNL     1      37.085   8.900  -5.877  1.00  0.00     0.027 C 
BRANCH  19  20
HETATM   20  C   UNL     1      37.487   9.925  -6.942  1.00  0.00     0.004 C 
BRANCH  20  21
HETATM   21  C   UNL     1      38.088  11.181  -6.303  1.00  0.00    -0.000 C 
BRANCH  21  22
HETATM   22  C   UNL     1      39.408  11.563  -6.984  1.00  0.00    -0.005 C 
HETATM   23  C   UNL     1      40.607  11.128  -6.146  1.00  0.00     0.005 C 
ENDBRANCH  21  22
ENDBRANCH  20  21
ENDBRANCH  19  20
ENDBRANCH  18  19
ENDBRANCH  16  17
ENDBRANCH  15  16
ENDBRANCH  13  14
ENDBRANCH  12  13
ENDBRANCH  10  11
ENDBRANCH   9  10
ENDBRANCH   7   8
ENDBRANCH   6   7
ENDBRANCH   5   6
ENDBRANCH   3   5
ENDBRANCH   1   3
TORSDOF 15
ENDMDL
MODEL 5
REMARK VINA RESULT:      -5.1     25.758     28.054
REMARK  15 active torsions:
REMARK  status: ('A' for Active; 'I' for Inactive)
REMARK    1  A    between atoms: O_1  and  C_22 
REMARK    2  A    between atoms: C_3  and  C_4 
REMARK    3  A    between atoms: C_3  and  C_5 
REMARK    4  A    between atoms: C_4  and  C_6 
REMARK    5  A    between atoms: C_5  and  C_7 
REMARK    6  A    between atoms: C_9  and  C_10 
REMARK    7  A    between atoms: C_9  and  C_13 
REMARK    8  A    between atoms: C_10  and  C_14 
REMARK    9  A    between atoms: C_11  and  C_12 
REMARK   10  A    between atoms: C_12  and  C_16 
REMARK   11  A    between atoms: C_13  and  C_22 
REMARK   12  A    between atoms: C_15  and  C_17 
REMARK   13  A    between atoms: C_15  and  C_20 
REMARK   14  A    between atoms: C_18  and  C_19 
REMARK   15  A    between atoms: C_18  and  C_21 
ROOT
HETATM    1  O   UNL     1      31.742 -21.095 -10.085  1.00  0.00    -0.776 OA
HETATM    2  H   UNL     1      32.283 -21.666  -9.522  1.00  0.00     0.167 HD
ENDROOT
BRANCH   1   3
HETATM    3  C   UNL     1      30.755 -20.331  -9.569  1.00  0.00     0.139 C 
HETATM    4  O   UNL     1      30.030 -20.777  -8.691  1.00  0.00    -0.650 OA
BRANCH   3   5
HETATM    5  C   UNL     1      30.543 -18.935 -10.086  1.00  0.00     0.110 C 
BRANCH   5   6
HETATM    6  C   UNL     1      29.980 -17.994  -9.012  1.00  0.00     0.014 C 
BRANCH   6   7
HETATM    7  C   UNL     1      31.068 -17.147  -8.338  1.00  0.00     0.027 C 
BRANCH   7   8
HETATM    8  C   UNL     1      31.836 -16.381  -9.385  1.00  0.00    -0.030 C 
HETATM    9  C   UNL     1      32.120 -15.066  -9.333  1.00  0.00    -0.027 C 
BRANCH   9  10
HETATM   10  C   UNL     1      31.742 -14.134  -8.209  1.00  0.00     0.053 C 
BRANCH  10  11
HETATM   11  C   UNL     1      31.063 -12.888  -8.735  1.00  0.00    -0.027 C 
HETATM   12  C   UNL     1      29.767 -12.743  -9.078  1.00  0.00    -0.027 C 
BRANCH  12  13
HETATM   13  C   UNL     1      28.684 -13.789  -8.999  1.00  0.00     0.053 C 
BRANCH  13  14
HETATM   14  C   UNL     1      27.788 -13.699 -10.211  1.00  0.00    -0.027 C 
HETATM   15  C   UNL     1      28.006 -14.328 -11.384  1.00  0.00    -0.027 C 
BRANCH  15  16
HETATM   16  C   UNL     1      29.194 -15.208 -11.671  1.00  0.00     0.053 C 
BRANCH  16  17
HETATM   17  C   UNL     1      29.738 -14.967 -13.058  1.00  0.00    -0.027 C 
HETATM   18  C   UNL     1      30.686 -15.727 -13.634  1.00  0.00    -0.030 C 
BRANCH  18  19
HETATM   19  C   UNL     1      31.350 -16.914 -12.983  1.00  0.00     0.027 C 
BRANCH  19  20
HETATM   20  C   UNL     1      31.192 -18.147 -13.879  1.00  0.00     0.004 C 
BRANCH  20  21
HETATM   21  C   UNL     1      29.885 -18.888 -13.579  1.00  0.00    -0.000 C 
BRANCH  21  22
HETATM   22  C   UNL     1      29.993 -20.367 -13.969  1.00  0.00    -0.005 C 
HETATM   23  C   UNL     1      30.975 -20.563 -15.120  1.00  0.00     0.005 C 
ENDBRANCH  21  22
ENDBRANCH  20  21
ENDBRANCH  19  20
ENDBRANCH  18  19
ENDBRANCH  16  17
ENDBRANCH  15  16
ENDBRANCH  13  14
ENDBRANCH  12  13
ENDBRANCH  10  11
ENDBRANCH   9  10
ENDBRANCH   7   8
ENDBRANCH   6   7
ENDBRANCH   5   6
ENDBRANCH   3   5
ENDBRANCH   1   3
TORSDOF 15
ENDMDL
MODEL 6
REMARK VINA RESULT:      -5.0      1.611      2.519
REMARK  15 active torsions:
REMARK  status: ('A' for Active; 'I' for Inactive)
REMARK    1  A    between atoms: O_1  and  C_22 
REMARK    2  A    between atoms: C_3  and  C_4 
REMARK    3  A    between atoms: C_3  and  C_5 
REMARK    4  A    between atoms: C_4  and  C_6 
REMARK    5  A    between atoms: C_5  and  C_7 
REMARK    6  A    between atoms: C_9  and  C_10 
REMARK    7  A    between atoms: C_9  and  C_13 
REMARK    8  A    between atoms: C_10  and  C_14 
REMARK    9  A    between atoms: C_11  and  C_12 
REMARK   10  A    between atoms: C_12  and  C_16 
REMARK   11  A    between atoms: C_13  and  C_22 
REMARK   12  A    between atoms: C_15  and  C_17 
REMARK   13  A    between atoms: C_15  and  C_20 
REMARK   14  A    between atoms: C_18  and  C_19 
REMARK   15  A    between atoms: C_18  and  C_21 
ROOT
HETATM    1  O   UNL     1      39.475   6.408 -20.862  1.00  0.00    -0.776 OA
HETATM    2  H   UNL     1      39.956   5.597 -20.644  1.00  0.00     0.167 HD
ENDROOT
BRANCH   1   3
HETATM    3  C   UNL     1      38.782   7.087 -19.923  1.00  0.00     0.139 C 
HETATM    4  O   UNL     1      37.738   7.650 -20.220  1.00  0.00    -0.650 OA
BRANCH   3   5
HETATM    5  C   UNL     1      39.304   7.158 -18.514  1.00  0.00     0.110 C 
BRANCH   5   6
HETATM    6  C   UNL     1      39.991   8.498 -18.213  1.00  0.00     0.014 C 
BRANCH   6   7
HETATM    7  C   UNL     1      39.755   8.974 -16.774  1.00  0.00     0.027 C 
BRANCH   7   8
HETATM    8  C   UNL     1      38.430   8.453 -16.278  1.00  0.00    -0.030 C 
HETATM    9  C   UNL     1      38.263   7.634 -15.222  1.00  0.00    -0.027 C 
BRANCH   9  10
HETATM   10  C   UNL     1      39.367   7.113 -14.337  1.00  0.00     0.053 C 
BRANCH  10  11
HETATM   11  C   UNL     1      39.098   7.427 -12.882  1.00  0.00    -0.027 C 
HETATM   12  C   UNL     1      39.162   8.631 -12.277  1.00  0.00    -0.027 C 
BRANCH  12  13
HETATM   13  C   UNL     1      39.501   9.952 -12.919  1.00  0.00     0.053 C 
BRANCH  13  14
HETATM   14  C   UNL     1      40.986  10.210 -12.818  1.00  0.00    -0.027 C 
HETATM   15  C   UNL     1      41.613  10.702 -11.731  1.00  0.00    -0.027 C 
BRANCH  15  16
HETATM   16  C   UNL     1      40.924  11.087 -10.448  1.00  0.00     0.053 C 
BRANCH  16  17
HETATM   17  C   UNL     1      41.712  10.641  -9.242  1.00  0.00    -0.027 C 
HETATM   18  C   UNL     1      41.527   9.465  -8.617  1.00  0.00    -0.030 C 
BRANCH  18  19
HETATM   19  C   UNL     1      40.506   8.430  -9.018  1.00  0.00     0.027 C 
BRANCH  19  20
HETATM   20  C   UNL     1      39.119   8.861  -8.531  1.00  0.00     0.004 C 
BRANCH  20  21
HETATM   21  C   UNL     1      39.139   9.215  -7.040  1.00  0.00    -0.000 C 
BRANCH  21  22
HETATM   22  C   UNL     1      38.332   8.198  -6.225  1.00  0.00    -0.005 C 
HETATM   23  C   UNL     1      39.248   7.191  -5.537  1.00  0.00     0.005 C 
ENDBRANCH  21  22
ENDBRANCH  20  21
ENDBRANCH  19  20
ENDBRANCH  18  19
ENDBRANCH  16  17
ENDBRANCH  15  16
ENDBRANCH  13  14
ENDBRANCH  12  13
ENDBRANCH  10  11
ENDBRANCH   9  10
ENDBRANCH   7   8
ENDBRANCH   6   7
ENDBRANCH   5   6
ENDBRANCH   3   5
ENDBRANCH   1   3
TORSDOF 15
ENDMDL
MODEL 7
REMARK VINA RESULT:      -5.0      1.756      2.903
REMARK  15 active torsions:
REMARK  status: ('A' for Active; 'I' for Inactive)
REMARK    1  A    between atoms: O_1  and  C_22 
REMARK    2  A    between atoms: C_3  and  C_4 
REMARK    3  A    between atoms: C_3  and  C_5 
REMARK    4  A    between atoms: C_4  and  C_6 
REMARK    5  A    between atoms: C_5  and  C_7 
REMARK    6  A    between atoms: C_9  and  C_10 
REMARK    7  A    between atoms: C_9  and  C_13 
REMARK    8  A    between atoms: C_10  and  C_14 
REMARK    9  A    between atoms: C_11  and  C_12 
REMARK   10  A    between atoms: C_12  and  C_16 
REMARK   11  A    between atoms: C_13  and  C_22 
REMARK   12  A    between atoms: C_15  and  C_17 
REMARK   13  A    between atoms: C_15  and  C_20 
REMARK   14  A    between atoms: C_18  and  C_19 
REMARK   15  A    between atoms: C_18  and  C_21 
ROOT
HETATM    1  O   UNL     1      40.105   7.204 -23.943  1.00  0.00    -0.776 OA
HETATM    2  H   UNL     1      41.062   7.340 -23.893  1.00  0.00     0.167 HD
ENDROOT
BRANCH   1   3
HETATM    3  C   UNL     1      39.273   7.717 -23.011  1.00  0.00     0.139 C 
HETATM    4  O   UNL     1      38.325   8.410 -23.352  1.00  0.00    -0.650 OA
BRANCH   3   5
HETATM    5  C   UNL     1      39.523   7.444 -21.554  1.00  0.00     0.110 C 
BRANCH   5   6
HETATM    6  C   UNL     1      38.268   7.657 -20.696  1.00  0.00     0.014 C 
BRANCH   6   7
HETATM    7  C   UNL     1      38.571   8.365 -19.369  1.00  0.00     0.027 C 
BRANCH   7   8
HETATM    8  C   UNL     1      39.513   7.522 -18.547  1.00  0.00    -0.030 C 
HETATM    9  C   UNL     1      39.461   7.381 -17.209  1.00  0.00    -0.027 C 
BRANCH   9  10
HETATM   10  C   UNL     1      38.441   8.020 -16.301  1.00  0.00     0.053 C 
BRANCH  10  11
HETATM   11  C   UNL     1      38.363   7.301 -14.972  1.00  0.00    -0.027 C 
HETATM   12  C   UNL     1      39.302   7.259 -14.006  1.00  0.00    -0.027 C 
BRANCH  12  13
HETATM   13  C   UNL     1      40.647   7.939 -14.017  1.00  0.00     0.053 C 
BRANCH  13  14
HETATM   14  C   UNL     1      40.489   9.404 -13.683  1.00  0.00    -0.027 C 
HETATM   15  C   UNL     1      40.275   9.896 -12.445  1.00  0.00    -0.027 C 
BRANCH  15  16
HETATM   16  C   UNL     1      40.145   9.055 -11.203  1.00  0.00     0.053 C 
BRANCH  16  17
HETATM   17  C   UNL     1      38.702   8.742 -10.896  1.00  0.00    -0.027 C 
HETATM   18  C   UNL     1      38.304   7.949  -9.886  1.00  0.00    -0.030 C 
BRANCH  18  19
HETATM   19  C   UNL     1      39.233   7.250  -8.925  1.00  0.00     0.027 C 
BRANCH  19  20
HETATM   20  C   UNL     1      39.164   7.932  -7.555  1.00  0.00     0.004 C 
BRANCH  20  21
HETATM   21  C   UNL     1      40.318   8.923  -7.370  1.00  0.00    -0.000 C 
BRANCH  21  22
HETATM   22  C   UNL     1      40.680   9.070  -5.888  1.00  0.00    -0.005 C 
HETATM   23  C   UNL     1      40.122   7.912  -5.067  1.00  0.00     0.005 C 
ENDBRANCH  21  22
ENDBRANCH  20  21
ENDBRANCH  19  20
ENDBRANCH  18  19
ENDBRANCH  16  17
ENDBRANCH  15  16
ENDBRANCH  13  14
ENDBRANCH  12  13
ENDBRANCH  10  11
ENDBRANCH   9  10
ENDBRANCH   7   8
ENDBRANCH   6   7
ENDBRANCH   5   6
ENDBRANCH   3   5
ENDBRANCH   1   3
TORSDOF 15
ENDMDL
MODEL 8
REMARK VINA RESULT:      -5.0     25.247     27.005
REMARK  15 active torsions:
REMARK  status: ('A' for Active; 'I' for Inactive)
REMARK    1  A    between atoms: O_1  and  C_22 
REMARK    2  A    between atoms: C_3  and  C_4 
REMARK    3  A    between atoms: C_3  and  C_5 
REMARK    4  A    between atoms: C_4  and  C_6 
REMARK    5  A    between atoms: C_5  and  C_7 
REMARK    6  A    between atoms: C_9  and  C_10 
REMARK    7  A    between atoms: C_9  and  C_13 
REMARK    8  A    between atoms: C_10  and  C_14 
REMARK    9  A    between atoms: C_11  and  C_12 
REMARK   10  A    between atoms: C_12  and  C_16 
REMARK   11  A    between atoms: C_13  and  C_22 
REMARK   12  A    between atoms: C_15  and  C_17 
REMARK   13  A    between atoms: C_15  and  C_20 
REMARK   14  A    between atoms: C_18  and  C_19 
REMARK   15  A    between atoms: C_18  and  C_21 
ROOT
HETATM    1  O   UNL     1      31.730 -21.036 -15.247  1.00  0.00    -0.776 OA
HETATM    2  H   UNL     1      32.662 -21.290 -15.182  1.00  0.00     0.167 HD
ENDROOT
BRANCH   1   3
HETATM    3  C   UNL     1      31.235 -19.991 -14.551  1.00  0.00     0.139 C 
HETATM    4  O   UNL     1      31.047 -18.919 -15.107  1.00  0.00    -0.650 OA
BRANCH   3   5
HETATM    5  C   UNL     1      30.927 -20.147 -13.087  1.00  0.00     0.110 C 
BRANCH   5   6
HETATM    6  C   UNL     1      30.204 -18.922 -12.509  1.00  0.00     0.014 C 
BRANCH   6   7
HETATM    7  C   UNL     1      30.698 -18.552 -11.104  1.00  0.00     0.027 C 
BRANCH   7   8
HETATM    8  C   UNL     1      30.520 -19.728 -10.177  1.00  0.00    -0.030 C 
HETATM    9  C   UNL     1      30.262 -19.645  -8.858  1.00  0.00    -0.027 C 
BRANCH   9  10
HETATM   10  C   UNL     1      30.082 -18.366  -8.082  1.00  0.00     0.053 C 
BRANCH  10  11
HETATM   11  C   UNL     1      30.328 -18.582  -6.605  1.00  0.00    -0.027 C 
HETATM   12  C   UNL     1      30.646 -17.652  -5.681  1.00  0.00    -0.027 C 
BRANCH  12  13
HETATM   13  C   UNL     1      30.812 -16.170  -5.906  1.00  0.00     0.053 C 
BRANCH  13  14
HETATM   14  C   UNL     1      29.495 -15.464  -5.689  1.00  0.00    -0.027 C 
HETATM   15  C   UNL     1      28.788 -14.833  -6.649  1.00  0.00    -0.027 C 
BRANCH  15  16
HETATM   16  C   UNL     1      29.215 -14.722  -8.089  1.00  0.00     0.053 C 
BRANCH  16  17
HETATM   17  C   UNL     1      28.934 -13.348  -8.645  1.00  0.00    -0.027 C 
HETATM   18  C   UNL     1      29.891 -12.466  -8.982  1.00  0.00    -0.030 C 
BRANCH  18  19
HETATM   19  C   UNL     1      31.373 -12.711  -8.846  1.00  0.00     0.027 C 
BRANCH  19  20
HETATM   20  C   UNL     1      31.930 -11.867  -7.695  1.00  0.00     0.004 C 
BRANCH  20  21
HETATM   21  C   UNL     1      31.810 -12.605  -6.357  1.00  0.00    -0.000 C 
BRANCH  21  22
HETATM   22  C   UNL     1      31.260 -11.675  -5.268  1.00  0.00    -0.005 C 
HETATM   23  C   UNL     1      29.741 -11.564  -5.354  1.00  0.00     0.005 C 
ENDBRANCH  21  22
ENDBRANCH  20  21
ENDBRANCH  19  20
ENDBRANCH  18  19
ENDBRANCH  16  17
ENDBRANCH  15  16
ENDBRANCH  13  14
ENDBRANCH  12  13
ENDBRANCH  10  11
ENDBRANCH   9  10
ENDBRANCH   7   8
ENDBRANCH   6   7
ENDBRANCH   5   6
ENDBRANCH   3   5
ENDBRANCH   1   3
TORSDOF 15
ENDMDL
MODEL 9
REMARK VINA RESULT:      -5.0     26.071     28.266
REMARK  15 active torsions:
REMARK  status: ('A' for Active; 'I' for Inactive)
REMARK    1  A    between atoms: O_1  and  C_22 
REMARK    2  A    between atoms: C_3  and  C_4 
REMARK    3  A    between atoms: C_3  and  C_5 
REMARK    4  A    between atoms: C_4  and  C_6 
REMARK    5  A    between atoms: C_5  and  C_7 
REMARK    6  A    between atoms: C_9  and  C_10 
REMARK    7  A    between atoms: C_9  and  C_13 
REMARK    8  A    between atoms: C_10  and  C_14 
REMARK    9  A    between atoms: C_11  and  C_12 
REMARK   10  A    between atoms: C_12  and  C_16 
REMARK   11  A    between atoms: C_13  and  C_22 
REMARK   12  A    between atoms: C_15  and  C_17 
REMARK   13  A    between atoms: C_15  and  C_20 
REMARK   14  A    between atoms: C_18  and  C_19 
REMARK   15  A    between atoms: C_18  and  C_21 
ROOT
HETATM    1  O   UNL     1      31.303 -18.814  -6.634  1.00  0.00    -0.776 OA
HETATM    2  H   UNL     1      30.695 -18.177  -6.233  1.00  0.00     0.167 HD
ENDROOT
BRANCH   1   3
HETATM    3  C   UNL     1      30.855 -19.958  -7.194  1.00  0.00     0.139 C 
HETATM    4  O   UNL     1      30.753 -20.971  -6.518  1.00  0.00    -0.650 OA
BRANCH   3   5
HETATM    5  C   UNL     1      30.494 -19.985  -8.653  1.00  0.00     0.110 C 
BRANCH   5   6
HETATM    6  C   UNL     1      30.579 -18.595  -9.302  1.00  0.00     0.014 C 
BRANCH   6   7
HETATM    7  C   UNL     1      30.198 -18.611 -10.787  1.00  0.00     0.027 C 
BRANCH   7   8
HETATM    8  C   UNL     1      30.896 -19.755 -11.479  1.00  0.00    -0.030 C 
HETATM    9  C   UNL     1      30.725 -20.103 -12.769  1.00  0.00    -0.027 C 
BRANCH   9  10
HETATM   10  C   UNL     1      29.827 -19.398 -13.753  1.00  0.00     0.053 C 
BRANCH  10  11
HETATM   11  C   UNL     1      30.417 -19.418 -15.146  1.00  0.00    -0.027 C 
HETATM   12  C   UNL     1      30.605 -18.369 -15.973  1.00  0.00    -0.027 C 
BRANCH  12  13
HETATM   13  C   UNL     1      30.287 -16.923 -15.690  1.00  0.00     0.053 C 
BRANCH  13  14
HETATM   14  C   UNL     1      31.354 -16.322 -14.806  1.00  0.00    -0.027 C 
HETATM   15  C   UNL     1      31.140 -15.799 -13.581  1.00  0.00    -0.027 C 
BRANCH  15  16
HETATM   16  C   UNL     1      29.794 -15.719 -12.911  1.00  0.00     0.053 C 
BRANCH  16  17
HETATM   17  C   UNL     1      29.420 -14.293 -12.591  1.00  0.00    -0.027 C 
HETATM   18  C   UNL     1      28.653 -13.523 -13.382  1.00  0.00    -0.030 C 
BRANCH  18  19
HETATM   19  C   UNL     1      28.066 -13.961 -14.700  1.00  0.00     0.027 C 
BRANCH  19  20
HETATM   20  C   UNL     1      28.172 -12.818 -15.715  1.00  0.00     0.004 C 
BRANCH  20  21
HETATM   21  C   UNL     1      29.541 -12.134 -15.639  1.00  0.00    -0.000 C 
BRANCH  21  22
HETATM   22  C   UNL     1      30.622 -13.000 -16.296  1.00  0.00    -0.005 C 
HETATM   23  C   UNL     1      30.906 -12.539 -17.722  1.00  0.00     0.005 C 
ENDBRANCH  21  22
ENDBRANCH  20  21
ENDBRANCH  19  20
ENDBRANCH  18  19
ENDBRANCH  16  17
ENDBRANCH  15  16
ENDBRANCH  13  14
ENDBRANCH  12  13
ENDBRANCH  10  11
ENDBRANCH   9  10
ENDBRANCH   7   8
ENDBRANCH   6   7
ENDBRANCH   5   6
ENDBRANCH   3   5
ENDBRANCH   1   3
TORSDOF 15
ENDMDL
MODEL 10
REMARK VINA RESULT:      -4.9     25.597     27.308
REMARK  15 active torsions:
REMARK  status: ('A' for Active; 'I' for Inactive)
REMARK    1  A    between atoms: O_1  and  C_22 
REMARK    2  A    between atoms: C_3  and  C_4 
REMARK    3  A    between atoms: C_3  and  C_5 
REMARK    4  A    between atoms: C_4  and  C_6 
REMARK    5  A    between atoms: C_5  and  C_7 
REMARK    6  A    between atoms: C_9  and  C_10 
REMARK    7  A    between atoms: C_9  and  C_13 
REMARK    8  A    between atoms: C_10  and  C_14 
REMARK    9  A    between atoms: C_11  and  C_12 
REMARK   10  A    between atoms: C_12  and  C_16 
REMARK   11  A    between atoms: C_13  and  C_22 
REMARK   12  A    between atoms: C_15  and  C_17 
REMARK   13  A    between atoms: C_15  and  C_20 
REMARK   14  A    between atoms: C_18  and  C_19 
REMARK   15  A    between atoms: C_18  and  C_21 
ROOT
HETATM    1  O   UNL     1      31.459 -21.364 -15.011  1.00  0.00    -0.776 OA
HETATM    2  H   UNL     1      32.108 -21.242 -14.304  1.00  0.00     0.167 HD
ENDROOT
BRANCH   1   3
HETATM    3  C   UNL     1      31.007 -20.320 -15.738  1.00  0.00     0.139 C 
HETATM    4  O   UNL     1      31.157 -20.307 -16.951  1.00  0.00    -0.650 OA
BRANCH   3   5
HETATM    5  C   UNL     1      30.329 -19.168 -15.049  1.00  0.00     0.110 C 
BRANCH   5   6
HETATM    6  C   UNL     1      31.207 -18.542 -13.956  1.00  0.00     0.014 C 
BRANCH   6   7
HETATM    7  C   UNL     1      30.385 -17.946 -12.806  1.00  0.00     0.027 C 
BRANCH   7   8
HETATM    8  C   UNL     1      31.166 -16.837 -12.145  1.00  0.00    -0.030 C 
HETATM    9  C   UNL     1      30.639 -15.691 -11.674  1.00  0.00    -0.027 C 
BRANCH   9  10
HETATM   10  C   UNL     1      29.177 -15.324 -11.702  1.00  0.00     0.053 C 
BRANCH  10  11
HETATM   11  C   UNL     1      28.988 -13.824 -11.673  1.00  0.00    -0.027 C 
HETATM   12  C   UNL     1      28.807 -13.041 -10.589  1.00  0.00    -0.027 C 
BRANCH  12  13
HETATM   13  C   UNL     1      28.773 -13.480  -9.148  1.00  0.00     0.053 C 
BRANCH  13  14
HETATM   14  C   UNL     1      29.746 -12.660  -8.334  1.00  0.00    -0.027 C 
HETATM   15  C   UNL     1      30.974 -13.069  -7.954  1.00  0.00    -0.027 C 
BRANCH  15  16
HETATM   16  C   UNL     1      31.559 -14.420  -8.272  1.00  0.00     0.053 C 
BRANCH  16  17
HETATM   17  C   UNL     1      31.925 -15.173  -7.016  1.00  0.00    -0.027 C 
HETATM   18  C   UNL     1      31.261 -16.254  -6.570  1.00  0.00    -0.030 C 
BRANCH  18  19
HETATM   19  C   UNL     1      30.057 -16.862  -7.243  1.00  0.00     0.027 C 
BRANCH  19  20
HETATM   20  C   UNL     1      30.300 -18.357  -7.479  1.00  0.00     0.004 C 
BRANCH  20  21
HETATM   21  C   UNL     1      30.128 -18.720  -8.957  1.00  0.00    -0.000 C 
BRANCH  21  22
HETATM   22  C   UNL     1      31.356 -19.474  -9.481  1.00  0.00    -0.005 C 
HETATM   23  C   UNL     1      30.949 -20.601 -10.426  1.00  0.00     0.005 C 
ENDBRANCH  21  22
ENDBRANCH  20  21
ENDBRANCH  19  20
ENDBRANCH  18  19
ENDBRANCH  16  17
ENDBRANCH  15  16
ENDBRANCH  13  14
ENDBRANCH  12  13
ENDBRANCH  10  11
ENDBRANCH   9  10
ENDBRANCH   7   8
ENDBRANCH   6   7
ENDBRANCH   5   6
ENDBRANCH   3   5
ENDBRANCH   1   3
TORSDOF 15
ENDMDL
MODEL 11
REMARK VINA RESULT:      -4.9     25.321     27.226
REMARK  15 active torsions:
REMARK  status: ('A' for Active; 'I' for Inactive)
REMARK    1  A    between atoms: O_1  and  C_22 
REMARK    2  A    between atoms: C_3  and  C_4 
REMARK    3  A    between atoms: C_3  and  C_5 
REMARK    4  A    between atoms: C_4  and  C_6 
REMARK    5  A    between atoms: C_5  and  C_7 
REMARK    6  A    between atoms: C_9  and  C_10 
REMARK    7  A    between atoms: C_9  and  C_13 
REMARK    8  A    between atoms: C_10  and  C_14 
REMARK    9  A    between atoms: C_11  and  C_12 
REMARK   10  A    between atoms: C_12  and  C_16 
REMARK   11  A    between atoms: C_13  and  C_22 
REMARK   12  A    between atoms: C_15  and  C_17 
REMARK   13  A    between atoms: C_15  and  C_20 
REMARK   14  A    between atoms: C_18  and  C_19 
REMARK   15  A    between atoms: C_18  and  C_21 
ROOT
HETATM    1  O   UNL     1      29.857 -21.118 -18.726  1.00  0.00    -0.776 OA
HETATM    2  H   UNL     1      29.250 -20.860 -19.434  1.00  0.00     0.167 HD
ENDROOT
BRANCH   1   3
HETATM    3  C   UNL     1      30.850 -20.299 -18.317  1.00  0.00     0.139 C 
HETATM    4  O   UNL     1      31.945 -20.348 -18.858  1.00  0.00    -0.650 OA
BRANCH   3   5
HETATM    5  C   UNL     1      30.607 -19.336 -17.188  1.00  0.00     0.110 C 
BRANCH   5   6
HETATM    6  C   UNL     1      30.881 -19.965 -15.815  1.00  0.00     0.014 C 
BRANCH   6   7
HETATM    7  C   UNL     1      31.213 -18.921 -14.741  1.00  0.00     0.027 C 
BRANCH   7   8
HETATM    8  C   UNL     1      30.072 -18.820 -13.760  1.00  0.00    -0.030 C 
HETATM    9  C   UNL     1      30.003 -17.949 -12.736  1.00  0.00    -0.027 C 
BRANCH   9  10
HETATM   10  C   UNL     1      31.041 -16.907 -12.403  1.00  0.00     0.053 C 
BRANCH  10  11
HETATM   11  C   UNL     1      30.863 -16.387 -10.994  1.00  0.00    -0.027 C 
HETATM   12  C   UNL     1      29.908 -15.548 -10.543  1.00  0.00    -0.027 C 
BRANCH  12  13
HETATM   13  C   UNL     1      28.777 -14.948 -11.340  1.00  0.00     0.053 C 
BRANCH  13  14
HETATM   14  C   UNL     1      28.827 -13.441 -11.253  1.00  0.00    -0.027 C 
HETATM   15  C   UNL     1      29.506 -12.640 -12.099  1.00  0.00    -0.027 C 
BRANCH  15  16
HETATM   16  C   UNL     1      30.337 -13.129 -13.257  1.00  0.00     0.053 C 
BRANCH  16  17
HETATM   17  C   UNL     1      29.733 -12.727 -14.579  1.00  0.00    -0.027 C 
HETATM   18  C   UNL     1      29.040 -13.563 -15.372  1.00  0.00    -0.030 C 
BRANCH  18  19
HETATM   19  C   UNL     1      28.776 -15.016 -15.067  1.00  0.00     0.027 C 
BRANCH  19  20
HETATM   20  C   UNL     1      29.499 -15.897 -16.091  1.00  0.00     0.004 C 
BRANCH  20  21
HETATM   21  C   UNL     1      30.536 -15.091 -16.881  1.00  0.00    -0.000 C 
BRANCH  21  22
HETATM   22  C   UNL     1      31.942 -15.671 -16.687  1.00  0.00    -0.005 C 
HETATM   23  C   UNL     1      32.514 -15.285 -15.326  1.00  0.00     0.005 C 
ENDBRANCH  21  22
ENDBRANCH  20  21
ENDBRANCH  19  20
ENDBRANCH  18  19
ENDBRANCH  16  17
ENDBRANCH  15  16
ENDBRANCH  13  14
ENDBRANCH  12  13
ENDBRANCH  10  11
ENDBRANCH   9  10
ENDBRANCH   7   8
ENDBRANCH   6   7
ENDBRANCH   5   6
ENDBRANCH   3   5
ENDBRANCH   1   3
TORSDOF 15
ENDMDL
MODEL 12
REMARK VINA RESULT:      -4.9     24.376     26.312
REMARK  15 active torsions:
REMARK  status: ('A' for Active; 'I' for Inactive)
REMARK    1  A    between atoms: O_1  and  C_22 
REMARK    2  A    between atoms: C_3  and  C_4 
REMARK    3  A    between atoms: C_3  and  C_5 
REMARK    4  A    between atoms: C_4  and  C_6 
REMARK    5  A    between atoms: C_5  and  C_7 
REMARK    6  A    between atoms: C_9  and  C_10 
REMARK    7  A    between atoms: C_9  and  C_13 
REMARK    8  A    between atoms: C_10  and  C_14 
REMARK    9  A    between atoms: C_11  and  C_12 
REMARK   10  A    between atoms: C_12  and  C_16 
REMARK   11  A    between atoms: C_13  and  C_22 
REMARK   12  A    between atoms: C_15  and  C_17 
REMARK   13  A    between atoms: C_15  and  C_20 
REMARK   14  A    between atoms: C_18  and  C_19 
REMARK   15  A    between atoms: C_18  and  C_21 
ROOT
HETATM    1  O   UNL     1      32.344 -20.635 -14.574  1.00  0.00    -0.776 OA
HETATM    2  H   UNL     1      33.031 -21.080 -15.090  1.00  0.00     0.167 HD
ENDROOT
BRANCH   1   3
HETATM    3  C   UNL     1      31.057 -20.618 -14.984  1.00  0.00     0.139 C 
HETATM    4  O   UNL     1      30.779 -20.892 -16.142  1.00  0.00    -0.650 OA
BRANCH   3   5
HETATM    5  C   UNL     1      29.969 -20.248 -14.014  1.00  0.00     0.110 C 
BRANCH   5   6
HETATM    6  C   UNL     1      30.386 -19.106 -13.076  1.00  0.00     0.014 C 
BRANCH   6   7
HETATM    7  C   UNL     1      30.367 -17.736 -13.767  1.00  0.00     0.027 C 
BRANCH   7   8
HETATM    8  C   UNL     1      31.387 -16.829 -13.127  1.00  0.00    -0.030 C 
HETATM    9  C   UNL     1      32.116 -15.901 -13.775  1.00  0.00    -0.027 C 
BRANCH   9  10
HETATM   10  C   UNL     1      32.023 -15.587 -15.246  1.00  0.00     0.053 C 
BRANCH  10  11
HETATM   11  C   UNL     1      33.128 -14.648 -15.678  1.00  0.00    -0.027 C 
HETATM   12  C   UNL     1      33.010 -13.357 -16.047  1.00  0.00    -0.027 C 
BRANCH  12  13
HETATM   13  C   UNL     1      31.745 -12.539 -16.096  1.00  0.00     0.053 C 
BRANCH  13  14
HETATM   14  C   UNL     1      31.137 -12.610 -17.477  1.00  0.00    -0.027 C 
HETATM   15  C   UNL     1      29.829 -12.814 -17.737  1.00  0.00    -0.027 C 
BRANCH  15  16
HETATM   16  C   UNL     1      28.772 -13.020 -16.684  1.00  0.00     0.053 C 
BRANCH  16  17
HETATM   17  C   UNL     1      28.705 -14.460 -16.241  1.00  0.00    -0.027 C 
HETATM   18  C   UNL     1      28.375 -14.847 -14.997  1.00  0.00    -0.030 C 
BRANCH  18  19
HETATM   19  C   UNL     1      28.036 -13.910 -13.866  1.00  0.00     0.027 C 
BRANCH  19  20
HETATM   20  C   UNL     1      29.193 -13.875 -12.862  1.00  0.00     0.004 C 
BRANCH  20  21
HETATM   21  C   UNL     1      29.964 -12.554 -12.950  1.00  0.00    -0.000 C 
BRANCH  21  22
HETATM   22  C   UNL     1      31.048 -12.481 -11.867  1.00  0.00    -0.005 C 
HETATM   23  C   UNL     1      32.433 -12.315 -12.484  1.00  0.00     0.005 C 
ENDBRANCH  21  22
ENDBRANCH  20  21
ENDBRANCH  19  20
ENDBRANCH  18  19
ENDBRANCH  16  17
ENDBRANCH  15  16
ENDBRANCH  13  14
ENDBRANCH  12  13
ENDBRANCH  10  11
ENDBRANCH   9  10
ENDBRANCH   7   8
ENDBRANCH   6   7
ENDBRANCH   5   6
ENDBRANCH   3   5
ENDBRANCH   1   3
TORSDOF 15
ENDMDL
MODEL 13
REMARK VINA RESULT:      -4.9      4.713     11.080
REMARK  15 active torsions:
REMARK  status: ('A' for Active; 'I' for Inactive)
REMARK    1  A    between atoms: O_1  and  C_22 
REMARK    2  A    between atoms: C_3  and  C_4 
REMARK    3  A    between atoms: C_3  and  C_5 
REMARK    4  A    between atoms: C_4  and  C_6 
REMARK    5  A    between atoms: C_5  and  C_7 
REMARK    6  A    between atoms: C_9  and  C_10 
REMARK    7  A    between atoms: C_9  and  C_13 
REMARK    8  A    between atoms: C_10  and  C_14 
REMARK    9  A    between atoms: C_11  and  C_12 
REMARK   10  A    between atoms: C_12  and  C_16 
REMARK   11  A    between atoms: C_13  and  C_22 
REMARK   12  A    between atoms: C_15  and  C_17 
REMARK   13  A    between atoms: C_15  and  C_20 
REMARK   14  A    between atoms: C_18  and  C_19 
REMARK   15  A    between atoms: C_18  and  C_21 
ROOT
HETATM    1  O   UNL     1      38.882  10.810  -7.494  1.00  0.00    -0.776 OA
HETATM    2  H   UNL     1      39.471  11.578  -7.484  1.00  0.00     0.167 HD
ENDROOT
BRANCH   1   3
HETATM    3  C   UNL     1      39.055   9.780  -6.640  1.00  0.00     0.139 C 
HETATM    4  O   UNL     1      39.703   9.936  -5.615  1.00  0.00    -0.650 OA
BRANCH   3   5
HETATM    5  C   UNL     1      38.460   8.436  -6.958  1.00  0.00     0.110 C 
BRANCH   5   6
HETATM    6  C   UNL     1      39.505   7.445  -7.490  1.00  0.00     0.014 C 
BRANCH   6   7
HETATM    7  C   UNL     1      39.909   7.733  -8.941  1.00  0.00     0.027 C 
BRANCH   7   8
HETATM    8  C   UNL     1      38.998   6.983  -9.881  1.00  0.00    -0.030 C 
HETATM    9  C   UNL     1      38.665   7.382 -11.123  1.00  0.00    -0.027 C 
BRANCH   9  10
HETATM   10  C   UNL     1      39.161   8.633 -11.802  1.00  0.00     0.053 C 
BRANCH  10  11
HETATM   11  C   UNL     1      40.250   8.318 -12.804  1.00  0.00    -0.027 C 
HETATM   12  C   UNL     1      40.122   7.660 -13.974  1.00  0.00    -0.027 C 
BRANCH  12  13
HETATM   13  C   UNL     1      38.854   7.099 -14.566  1.00  0.00     0.053 C 
BRANCH  13  14
HETATM   14  C   UNL     1      38.249   8.095 -15.528  1.00  0.00    -0.027 C 
HETATM   15  C   UNL     1      38.549   8.184 -16.839  1.00  0.00    -0.027 C 
BRANCH  15  16
HETATM   16  C   UNL     1      39.552   7.312 -17.547  1.00  0.00     0.053 C 
BRANCH  16  17
HETATM   17  C   UNL     1      40.354   8.097 -18.555  1.00  0.00    -0.027 C 
HETATM   18  C   UNL     1      40.218   7.968 -19.886  1.00  0.00    -0.030 C 
BRANCH  18  19
HETATM   19  C   UNL     1      39.261   7.020 -20.565  1.00  0.00     0.027 C 
BRANCH  19  20
HETATM   20  C   UNL     1      39.328   7.221 -22.082  1.00  0.00     0.004 C 
BRANCH  20  21
HETATM   21  C   UNL     1      39.157   8.698 -22.454  1.00  0.00    -0.000 C 
BRANCH  21  22
HETATM   22  C   UNL     1      40.264   9.152 -23.413  1.00  0.00    -0.005 C 
HETATM   23  C   UNL     1      41.375   9.884 -22.666  1.00  0.00     0.005 C 
ENDBRANCH  21  22
ENDBRANCH  20  21
ENDBRANCH  19  20
ENDBRANCH  18  19
ENDBRANCH  16  17
ENDBRANCH  15  16
ENDBRANCH  13  14
ENDBRANCH  12  13
ENDBRANCH  10  11
ENDBRANCH   9  10
ENDBRANCH   7   8
ENDBRANCH   6   7
ENDBRANCH   5   6
ENDBRANCH   3   5
ENDBRANCH   1   3
TORSDOF 15
ENDMDL
MODEL 14
REMARK VINA RESULT:      -4.8     23.807     25.883
REMARK  15 active torsions:
REMARK  status: ('A' for Active; 'I' for Inactive)
REMARK    1  A    between atoms: O_1  and  C_22 
REMARK    2  A    between atoms: C_3  and  C_4 
REMARK    3  A    between atoms: C_3  and  C_5 
REMARK    4  A    between atoms: C_4  and  C_6 
REMARK    5  A    between atoms: C_5  and  C_7 
REMARK    6  A    between atoms: C_9  and  C_10 
REMARK    7  A    between atoms: C_9  and  C_13 
REMARK    8  A    between atoms: C_10  and  C_14 
REMARK    9  A    between atoms: C_11  and  C_12 
REMARK   10  A    between atoms: C_12  and  C_16 
REMARK   11  A    between atoms: C_13  and  C_22 
REMARK   12  A    between atoms: C_15  and  C_17 
REMARK   13  A    between atoms: C_15  and  C_20 
REMARK   14  A    between atoms: C_18  and  C_19 
REMARK   15  A    between atoms: C_18  and  C_21 
ROOT
HETATM    1  O   UNL     1      31.717 -21.065 -10.115  1.00  0.00    -0.776 OA
HETATM    2  H   UNL     1      31.723 -22.031 -10.059  1.00  0.00     0.167 HD
ENDROOT
BRANCH   1   3
HETATM    3  C   UNL     1      30.798 -20.329  -9.454  1.00  0.00     0.139 C 
HETATM    4  O   UNL     1      29.888 -20.881  -8.853  1.00  0.00    -0.650 OA
BRANCH   3   5
HETATM    5  C   UNL     1      30.892 -18.828  -9.469  1.00  0.00     0.110 C 
BRANCH   5   6
HETATM    6  C   UNL     1      30.451 -18.229 -10.813  1.00  0.00     0.014 C 
BRANCH   6   7
HETATM    7  C   UNL     1      30.239 -16.712 -10.743  1.00  0.00     0.027 C 
BRANCH   7   8
HETATM    8  C   UNL     1      31.574 -16.011 -10.751  1.00  0.00    -0.030 C 
HETATM    9  C   UNL     1      32.125 -15.377  -9.699  1.00  0.00    -0.027 C 
BRANCH   9  10
HETATM   10  C   UNL     1      31.517 -15.276  -8.322  1.00  0.00     0.053 C 
BRANCH  10  11
HETATM   11  C   UNL     1      32.529 -14.787  -7.310  1.00  0.00    -0.027 C 
HETATM   12  C   UNL     1      32.854 -13.510  -7.026  1.00  0.00    -0.027 C 
BRANCH  12  13
HETATM   13  C   UNL     1      32.266 -12.265  -7.641  1.00  0.00     0.053 C 
BRANCH  13  14
HETATM   14  C   UNL     1      33.323 -11.530  -8.431  1.00  0.00    -0.027 C 
HETATM   15  C   UNL     1      33.125 -10.947  -9.631  1.00  0.00    -0.027 C 
BRANCH  15  16
HETATM   16  C   UNL     1      31.818 -10.954 -10.379  1.00  0.00     0.053 C 
BRANCH  16  17
HETATM   17  C   UNL     1      31.740 -12.110 -11.345  1.00  0.00    -0.027 C 
HETATM   18  C   UNL     1      30.589 -12.599 -11.838  1.00  0.00    -0.030 C 
BRANCH  18  19
HETATM   19  C   UNL     1      29.216 -12.079 -11.493  1.00  0.00     0.027 C 
BRANCH  19  20
HETATM   20  C   UNL     1      28.504 -13.076 -10.573  1.00  0.00     0.004 C 
BRANCH  20  21
HETATM   21  C   UNL     1      28.934 -12.889  -9.114  1.00  0.00    -0.000 C 
BRANCH  21  22
HETATM   22  C   UNL     1      28.222 -13.894  -8.201  1.00  0.00    -0.005 C 
HETATM   23  C   UNL     1      28.534 -13.622  -6.733  1.00  0.00     0.005 C 
ENDBRANCH  21  22
ENDBRANCH  20  21
ENDBRANCH  19  20
ENDBRANCH  18  19
ENDBRANCH  16  17
ENDBRANCH  15  16
ENDBRANCH  13  14
ENDBRANCH  12  13
ENDBRANCH  10  11
ENDBRANCH   9  10
ENDBRANCH   7   8
ENDBRANCH   6   7
ENDBRANCH   5   6
ENDBRANCH   3   5
ENDBRANCH   1   3
TORSDOF 15
ENDMDL
MODEL 15
REMARK VINA RESULT:      -4.8      3.852      7.364
REMARK  15 active torsions:
REMARK  status: ('A' for Active; 'I' for Inactive)
REMARK    1  A    between atoms: O_1  and  C_22 
REMARK    2  A    between atoms: C_3  and  C_4 
REMARK    3  A    between atoms: C_3  and  C_5 
REMARK    4  A    between atoms: C_4  and  C_6 
REMARK    5  A    between atoms: C_5  and  C_7 
REMARK    6  A    between atoms: C_9  and  C_10 
REMARK    7  A    between atoms: C_9  and  C_13 
REMARK    8  A    between atoms: C_10  and  C_14 
REMARK    9  A    between atoms: C_11  and  C_12 
REMARK   10  A    between atoms: C_12  and  C_16 
REMARK   11  A    between atoms: C_13  and  C_22 
REMARK   12  A    between atoms: C_15  and  C_17 
REMARK   13  A    between atoms: C_15  and  C_20 
REMARK   14  A    between atoms: C_18  and  C_19 
REMARK   15  A    between atoms: C_18  and  C_21 
ROOT
HETATM    1  O   UNL     1      37.869  14.393 -12.179  1.00  0.00    -0.776 OA
HETATM    2  H   UNL     1      37.803  15.013 -12.919  1.00  0.00     0.167 HD
ENDROOT
BRANCH   1   3
HETATM    3  C   UNL     1      37.523  13.096 -12.316  1.00  0.00     0.139 C 
HETATM    4  O   UNL     1      36.918  12.724 -13.311  1.00  0.00    -0.650 OA
BRANCH   3   5
HETATM    5  C   UNL     1      37.874  12.111 -11.235  1.00  0.00     0.110 C 
BRANCH   5   6
HETATM    6  C   UNL     1      37.556  10.664 -11.637  1.00  0.00     0.014 C 
BRANCH   6   7
HETATM    7  C   UNL     1      37.150   9.793 -10.441  1.00  0.00     0.027 C 
BRANCH   7   8
HETATM    8  C   UNL     1      37.383   8.339 -10.769  1.00  0.00    -0.030 C 
HETATM    9  C   UNL     1      38.200   7.512 -10.091  1.00  0.00    -0.027 C 
BRANCH   9  10
HETATM   10  C   UNL     1      39.006   7.884  -8.872  1.00  0.00     0.053 C 
BRANCH  10  11
HETATM   11  C   UNL     1      40.489   7.865  -9.169  1.00  0.00    -0.027 C 
HETATM   12  C   UNL     1      41.254   8.890  -9.595  1.00  0.00    -0.027 C 
BRANCH  12  13
HETATM   13  C   UNL     1      40.809  10.307  -9.858  1.00  0.00     0.053 C 
BRANCH  13  14
HETATM   14  C   UNL     1      41.955  11.113 -10.422  1.00  0.00    -0.027 C 
HETATM   15  C   UNL     1      42.075  11.488 -11.712  1.00  0.00    -0.027 C 
BRANCH  15  16
HETATM   16  C   UNL     1      41.088  11.145 -12.796  1.00  0.00     0.053 C 
BRANCH  16  17
HETATM   17  C   UNL     1      41.672  10.171 -13.788  1.00  0.00    -0.027 C 
HETATM   18  C   UNL     1      41.294   8.884 -13.888  1.00  0.00    -0.030 C 
BRANCH  18  19
HETATM   19  C   UNL     1      40.249   8.226 -13.024  1.00  0.00     0.027 C 
BRANCH  19  20
HETATM   20  C   UNL     1      39.303   7.399 -13.900  1.00  0.00     0.004 C 
BRANCH  20  21
HETATM   21  C   UNL     1      39.594   7.616 -15.389  1.00  0.00    -0.000 C 
BRANCH  21  22
HETATM   22  C   UNL     1      38.368   8.195 -16.106  1.00  0.00    -0.005 C 
HETATM   23  C   UNL     1      37.491   8.990 -15.144  1.00  0.00     0.005 C 
ENDBRANCH  21  22
ENDBRANCH  20  21
ENDBRANCH  19  20
ENDBRANCH  18  19
ENDBRANCH  16  17
ENDBRANCH  15  16
ENDBRANCH  13  14
ENDBRANCH  12  13
ENDBRANCH  10  11
ENDBRANCH   9  10
ENDBRANCH   7   8
ENDBRANCH   6   7
ENDBRANCH   5   6
ENDBRANCH   3   5
ENDBRANCH   1   3
TORSDOF 15
ENDMDL
MODEL 16
REMARK VINA RESULT:      -4.8     25.200     27.496
REMARK  15 active torsions:
REMARK  status: ('A' for Active; 'I' for Inactive)
REMARK    1  A    between atoms: O_1  and  C_22 
REMARK    2  A    between atoms: C_3  and  C_4 
REMARK    3  A    between atoms: C_3  and  C_5 
REMARK    4  A    between atoms: C_4  and  C_6 
REMARK    5  A    between atoms: C_5  and  C_7 
REMARK    6  A    between atoms: C_9  and  C_10 
REMARK    7  A    between atoms: C_9  and  C_13 
REMARK    8  A    between atoms: C_10  and  C_14 
REMARK    9  A    between atoms: C_11  and  C_12 
REMARK   10  A    between atoms: C_12  and  C_16 
REMARK   11  A    between atoms: C_13  and  C_22 
REMARK   12  A    between atoms: C_15  and  C_17 
REMARK   13  A    between atoms: C_15  and  C_20 
REMARK   14  A    between atoms: C_18  and  C_19 
REMARK   15  A    between atoms: C_18  and  C_21 
ROOT
HETATM    1  O   UNL     1      31.759 -21.141 -15.022  1.00  0.00    -0.776 OA
HETATM    2  H   UNL     1      32.631 -21.193 -14.605  1.00  0.00     0.167 HD
ENDROOT
BRANCH   1   3
HETATM    3  C   UNL     1      30.782 -20.360 -14.515  1.00  0.00     0.139 C 
HETATM    4  O   UNL     1      29.992 -20.819 -13.703  1.00  0.00    -0.650 OA
BRANCH   3   5
HETATM    5  C   UNL     1      30.661 -18.929 -14.961  1.00  0.00     0.110 C 
BRANCH   5   6
HETATM    6  C   UNL     1      29.748 -18.106 -14.041  1.00  0.00     0.014 C 
BRANCH   6   7
HETATM    7  C   UNL     1      30.299 -16.701 -13.765  1.00  0.00     0.027 C 
BRANCH   7   8
HETATM    8  C   UNL     1      31.806 -16.747 -13.714  1.00  0.00    -0.030 C 
HETATM    9  C   UNL     1      32.628 -15.778 -14.159  1.00  0.00    -0.027 C 
BRANCH   9  10
HETATM   10  C   UNL     1      32.188 -14.468 -14.763  1.00  0.00     0.053 C 
BRANCH  10  11
HETATM   11  C   UNL     1      32.151 -13.370 -13.723  1.00  0.00    -0.027 C 
HETATM   12  C   UNL     1      31.696 -12.110 -13.876  1.00  0.00    -0.027 C 
BRANCH  12  13
HETATM   13  C   UNL     1      31.096 -11.507 -15.121  1.00  0.00     0.053 C 
BRANCH  13  14
HETATM   14  C   UNL     1      29.589 -11.592 -15.062  1.00  0.00    -0.027 C 
HETATM   15  C   UNL     1      28.824 -12.344 -15.880  1.00  0.00    -0.027 C 
BRANCH  15  16
HETATM   16  C   UNL     1      29.358 -13.207 -16.993  1.00  0.00     0.053 C 
BRANCH  16  17
HETATM   17  C   UNL     1      29.240 -14.673 -16.661  1.00  0.00    -0.027 C 
HETATM   18  C   UNL     1      29.463 -15.663 -17.544  1.00  0.00    -0.030 C 
BRANCH  18  19
HETATM   19  C   UNL     1      29.848 -15.456 -18.987  1.00  0.00     0.027 C 
BRANCH  19  20
HETATM   20  C   UNL     1      30.122 -16.813 -19.645  1.00  0.00     0.004 C 
BRANCH  20  21
HETATM   21  C   UNL     1      30.458 -17.880 -18.598  1.00  0.00    -0.000 C 
BRANCH  21  22
HETATM   22  C   UNL     1      29.716 -19.189 -18.895  1.00  0.00    -0.005 C 
HETATM   23  C   UNL     1      30.434 -20.382 -18.273  1.00  0.00     0.005 C 
ENDBRANCH  21  22
ENDBRANCH  20  21
ENDBRANCH  19  20
ENDBRANCH  18  19
ENDBRANCH  16  17
ENDBRANCH  15  16
ENDBRANCH  13  14
ENDBRANCH  12  13
ENDBRANCH  10  11
ENDBRANCH   9  10
ENDBRANCH   7   8
ENDBRANCH   6   7
ENDBRANCH   5   6
ENDBRANCH   3   5
ENDBRANCH   1   3
TORSDOF 15
ENDMDL
MODEL 17
REMARK VINA RESULT:      -4.8      4.567      9.550
REMARK  15 active torsions:
REMARK  status: ('A' for Active; 'I' for Inactive)
REMARK    1  A    between atoms: O_1  and  C_22 
REMARK    2  A    between atoms: C_3  and  C_4 
REMARK    3  A    between atoms: C_3  and  C_5 
REMARK    4  A    between atoms: C_4  and  C_6 
REMARK    5  A    between atoms: C_5  and  C_7 
REMARK    6  A    between atoms: C_9  and  C_10 
REMARK    7  A    between atoms: C_9  and  C_13 
REMARK    8  A    between atoms: C_10  and  C_14 
REMARK    9  A    between atoms: C_11  and  C_12 
REMARK   10  A    between atoms: C_12  and  C_16 
REMARK   11  A    between atoms: C_13  and  C_22 
REMARK   12  A    between atoms: C_15  and  C_17 
REMARK   13  A    between atoms: C_15  and  C_20 
REMARK   14  A    between atoms: C_18  and  C_19 
REMARK   15  A    between atoms: C_18  and  C_21 
ROOT
HETATM    1  O   UNL     1      43.923  13.051  -7.765  1.00  0.00    -0.776 OA
HETATM    2  H   UNL     1      43.659  13.981  -7.799  1.00  0.00     0.167 HD
ENDROOT
BRANCH   1   3
HETATM    3  C   UNL     1      43.108  12.071  -8.210  1.00  0.00     0.139 C 
HETATM    4  O   UNL     1      43.259  11.612  -9.333  1.00  0.00    -0.650 OA
BRANCH   3   5
HETATM    5  C   UNL     1      42.007  11.556  -7.326  1.00  0.00     0.110 C 
BRANCH   5   6
HETATM    6  C   UNL     1      40.891  10.867  -8.124  1.00  0.00     0.014 C 
BRANCH   6   7
HETATM    7  C   UNL     1      41.080   9.347  -8.214  1.00  0.00     0.027 C 
BRANCH   7   8
HETATM    8  C   UNL     1      39.969   8.651  -7.468  1.00  0.00    -0.030 C 
HETATM    9  C   UNL     1      39.169   7.697  -7.980  1.00  0.00    -0.027 C 
BRANCH   9  10
HETATM   10  C   UNL     1      39.257   7.139  -9.378  1.00  0.00     0.053 C 
BRANCH  10  11
HETATM   11  C   UNL     1      38.104   7.618 -10.232  1.00  0.00    -0.027 C 
HETATM   12  C   UNL     1      38.078   8.691 -11.049  1.00  0.00    -0.027 C 
BRANCH  12  13
HETATM   13  C   UNL     1      39.205   9.655 -11.316  1.00  0.00     0.053 C 
BRANCH  13  14
HETATM   14  C   UNL     1      40.317   8.958 -12.064  1.00  0.00    -0.027 C 
HETATM   15  C   UNL     1      40.385   8.829 -13.405  1.00  0.00    -0.027 C 
BRANCH  15  16
HETATM   16  C   UNL     1      39.349   9.349 -14.366  1.00  0.00     0.053 C 
BRANCH  16  17
HETATM   17  C   UNL     1      38.253   8.339 -14.599  1.00  0.00    -0.027 C 
HETATM   18  C   UNL     1      38.349   7.316 -15.467  1.00  0.00    -0.030 C 
BRANCH  18  19
HETATM   19  C   UNL     1      39.547   7.036 -16.338  1.00  0.00     0.027 C 
BRANCH  19  20
HETATM   20  C   UNL     1      39.190   7.297 -17.805  1.00  0.00     0.004 C 
BRANCH  20  21
HETATM   21  C   UNL     1      40.333   8.006 -18.537  1.00  0.00    -0.000 C 
BRANCH  21  22
HETATM   22  C   UNL     1      40.782   9.256 -17.770  1.00  0.00    -0.005 C 
HETATM   23  C   UNL     1      41.878  10.002 -18.523  1.00  0.00     0.005 C 
ENDBRANCH  21  22
ENDBRANCH  20  21
ENDBRANCH  19  20
ENDBRANCH  18  19
ENDBRANCH  16  17
ENDBRANCH  15  16
ENDBRANCH  13  14
ENDBRANCH  12  13
ENDBRANCH  10  11
ENDBRANCH   9  10
ENDBRANCH   7   8
ENDBRANCH   6   7
ENDBRANCH   5   6
ENDBRANCH   3   5
ENDBRANCH   1   3
TORSDOF 15
ENDMDL
MODEL 18
REMARK VINA RESULT:      -4.8     24.954     27.237
REMARK  15 active torsions:
REMARK  status: ('A' for Active; 'I' for Inactive)
REMARK    1  A    between atoms: O_1  and  C_22 
REMARK    2  A    between atoms: C_3  and  C_4 
REMARK    3  A    between atoms: C_3  and  C_5 
REMARK    4  A    between atoms: C_4  and  C_6 
REMARK    5  A    between atoms: C_5  and  C_7 
REMARK    6  A    between atoms: C_9  and  C_10 
REMARK    7  A    between atoms: C_9  and  C_13 
REMARK    8  A    between atoms: C_10  and  C_14 
REMARK    9  A    between atoms: C_11  and  C_12 
REMARK   10  A    between atoms: C_12  and  C_16 
REMARK   11  A    between atoms: C_13  and  C_22 
REMARK   12  A    between atoms: C_15  and  C_17 
REMARK   13  A    between atoms: C_15  and  C_20 
REMARK   14  A    between atoms: C_18  and  C_19 
REMARK   15  A    between atoms: C_18  and  C_21 
ROOT
HETATM    1  O   UNL     1      31.885 -21.050  -5.099  1.00  0.00    -0.776 OA
HETATM    2  H   UNL     1      31.681 -21.909  -4.701  1.00  0.00     0.167 HD
ENDROOT
BRANCH   1   3
HETATM    3  C   UNL     1      30.967 -20.378  -5.826  1.00  0.00     0.139 C 
HETATM    4  O   UNL     1      30.722 -20.722  -6.973  1.00  0.00    -0.650 OA
BRANCH   3   5
HETATM    5  C   UNL     1      30.257 -19.197  -5.224  1.00  0.00     0.110 C 
BRANCH   5   6
HETATM    6  C   UNL     1      30.894 -17.861  -5.633  1.00  0.00     0.014 C 
BRANCH   6   7
HETATM    7  C   UNL     1      30.105 -17.142  -6.735  1.00  0.00     0.027 C 
BRANCH   7   8
HETATM    8  C   UNL     1      30.839 -17.262  -8.046  1.00  0.00    -0.030 C 
HETATM    9  C   UNL     1      31.599 -16.299  -8.602  1.00  0.00    -0.027 C 
BRANCH   9  10
HETATM   10  C   UNL     1      31.869 -14.943  -8.002  1.00  0.00     0.053 C 
BRANCH  10  11
HETATM   11  C   UNL     1      33.229 -14.897  -7.340  1.00  0.00    -0.027 C 
HETATM   12  C   UNL     1      33.497 -14.773  -6.025  1.00  0.00    -0.027 C 
BRANCH  12  13
HETATM   13  C   UNL     1      32.499 -14.672  -4.900  1.00  0.00     0.053 C 
BRANCH  13  14
HETATM   14  C   UNL     1      31.936 -13.272  -4.832  1.00  0.00    -0.027 C 
HETATM   15  C   UNL     1      30.623 -12.966  -4.804  1.00  0.00    -0.027 C 
BRANCH  15  16
HETATM   16  C   UNL     1      29.509 -13.979  -4.853  1.00  0.00     0.053 C 
BRANCH  16  17
HETATM   17  C   UNL     1      28.173 -13.322  -5.093  1.00  0.00    -0.027 C 
HETATM   18  C   UNL     1      27.483 -13.424  -6.242  1.00  0.00    -0.030 C 
BRANCH  18  19
HETATM   19  C   UNL     1      27.940 -14.193  -7.455  1.00  0.00     0.027 C 
BRANCH  19  20
HETATM   20  C   UNL     1      28.688 -13.255  -8.408  1.00  0.00     0.004 C 
BRANCH  20  21
HETATM   21  C   UNL     1      28.378 -13.589  -9.871  1.00  0.00    -0.000 C 
BRANCH  21  22
HETATM   22  C   UNL     1      28.885 -12.481 -10.803  1.00  0.00    -0.005 C 
HETATM   23  C   UNL     1      30.030 -11.703 -10.162  1.00  0.00     0.005 C 
ENDBRANCH  21  22
ENDBRANCH  20  21
ENDBRANCH  19  20
ENDBRANCH  18  19
ENDBRANCH  16  17
ENDBRANCH  15  16
ENDBRANCH  13  14
ENDBRANCH  12  13
ENDBRANCH  10  11
ENDBRANCH   9  10
ENDBRANCH   7   8
ENDBRANCH   6   7
ENDBRANCH   5   6
ENDBRANCH   3   5
ENDBRANCH   1   3
TORSDOF 15
ENDMDL
MODEL 19
REMARK VINA RESULT:      -4.8     23.672     25.568
REMARK  15 active torsions:
REMARK  status: ('A' for Active; 'I' for Inactive)
REMARK    1  A    between atoms: O_1  and  C_22 
REMARK    2  A    between atoms: C_3  and  C_4 
REMARK    3  A    between atoms: C_3  and  C_5 
REMARK    4  A    between atoms: C_4  and  C_6 
REMARK    5  A    between atoms: C_5  and  C_7 
REMARK    6  A    between atoms: C_9  and  C_10 
REMARK    7  A    between atoms: C_9  and  C_13 
REMARK    8  A    between atoms: C_10  and  C_14 
REMARK    9  A    between atoms: C_11  and  C_12 
REMARK   10  A    between atoms: C_12  and  C_16 
REMARK   11  A    between atoms: C_13  and  C_22 
REMARK   12  A    between atoms: C_15  and  C_17 
REMARK   13  A    between atoms: C_15  and  C_20 
REMARK   14  A    between atoms: C_18  and  C_19 
REMARK   15  A    between atoms: C_18  and  C_21 
ROOT
HETATM    1  O   UNL     1      30.252 -21.372 -14.436  1.00  0.00    -0.776 OA
HETATM    2  H   UNL     1      29.645 -22.122 -14.369  1.00  0.00     0.167 HD
ENDROOT
BRANCH   1   3
HETATM    3  C   UNL     1      30.309 -20.425 -13.475  1.00  0.00     0.139 C 
HETATM    4  O   UNL     1      30.666 -20.722 -12.344  1.00  0.00    -0.650 OA
BRANCH   3   5
HETATM    5  C   UNL     1      29.921 -19.008 -13.797  1.00  0.00     0.110 C 
BRANCH   5   6
HETATM    6  C   UNL     1      30.164 -18.054 -12.619  1.00  0.00     0.014 C 
BRANCH   6   7
HETATM    7  C   UNL     1      30.150 -16.579 -13.040  1.00  0.00     0.027 C 
BRANCH   7   8
HETATM    8  C   UNL     1      31.565 -16.076 -13.179  1.00  0.00    -0.030 C 
HETATM    9  C   UNL     1      32.176 -15.792 -14.345  1.00  0.00    -0.027 C 
BRANCH   9  10
HETATM   10  C   UNL     1      31.548 -15.902 -15.711  1.00  0.00     0.053 C 
BRANCH  10  11
HETATM   11  C   UNL     1      31.816 -14.665 -16.539  1.00  0.00    -0.027 C 
HETATM   12  C   UNL     1      30.940 -13.696 -16.874  1.00  0.00    -0.027 C 
BRANCH  12  13
HETATM   13  C   UNL     1      29.487 -13.612 -16.482  1.00  0.00     0.053 C 
BRANCH  13  14
HETATM   14  C   UNL     1      29.199 -12.271 -15.848  1.00  0.00    -0.027 C 
HETATM   15  C   UNL     1      29.225 -12.022 -14.522  1.00  0.00    -0.027 C 
BRANCH  15  16
HETATM   16  C   UNL     1      29.530 -13.051 -13.465  1.00  0.00     0.053 C 
BRANCH  16  17
HETATM   17  C   UNL     1      29.748 -12.411 -12.117  1.00  0.00    -0.027 C 
HETATM   18  C   UNL     1      30.959 -12.223 -11.563  1.00  0.00    -0.030 C 
BRANCH  18  19
HETATM   19  C   UNL     1      32.266 -12.632 -12.194  1.00  0.00     0.027 C 
BRANCH  19  20
HETATM   20  C   UNL     1      32.823 -11.469 -13.023  1.00  0.00     0.004 C 
BRANCH  20  21
HETATM   21  C   UNL     1      32.691 -11.746 -14.525  1.00  0.00    -0.000 C 
BRANCH  21  22
HETATM   22  C   UNL     1      33.001 -10.485 -15.341  1.00  0.00    -0.005 C 
HETATM   23  C   UNL     1      33.789 -10.826 -16.602  1.00  0.00     0.005 C 
ENDBRANCH  21  22
ENDBRANCH  20  21
ENDBRANCH  19  20
ENDBRANCH  18  19
ENDBRANCH  16  17
ENDBRANCH  15  16
ENDBRANCH  13  14
ENDBRANCH  12  13
ENDBRANCH  10  11
ENDBRANCH   9  10
ENDBRANCH   7   8
ENDBRANCH   6   7
ENDBRANCH   5   6
ENDBRANCH   3   5
ENDBRANCH   1   3
TORSDOF 15
ENDMDL
MODEL 20
REMARK VINA RESULT:      -4.8      5.419      9.743
REMARK  15 active torsions:
REMARK  status: ('A' for Active; 'I' for Inactive)
REMARK    1  A    between atoms: O_1  and  C_22 
REMARK    2  A    between atoms: C_3  and  C_4 
REMARK    3  A    between atoms: C_3  and  C_5 
REMARK    4  A    between atoms: C_4  and  C_6 
REMARK    5  A    between atoms: C_5  and  C_7 
REMARK    6  A    between atoms: C_9  and  C_10 
REMARK    7  A    between atoms: C_9  and  C_13 
REMARK    8  A    between atoms: C_10  and  C_14 
REMARK    9  A    between atoms: C_11  and  C_12 
REMARK   10  A    between atoms: C_12  and  C_16 
REMARK   11  A    between atoms: C_13  and  C_22 
REMARK   12  A    between atoms: C_15  and  C_17 
REMARK   13  A    between atoms: C_15  and  C_20 
REMARK   14  A    between atoms: C_18  and  C_19 
REMARK   15  A    between atoms: C_18  and  C_21 
ROOT
HETATM    1  O   UNL     1      38.349   8.904  -4.108  1.00  0.00    -0.776 OA
HETATM    2  H   UNL     1      37.644   9.439  -4.500  1.00  0.00     0.167 HD
ENDROOT
BRANCH   1   3
HETATM    3  C   UNL     1      38.863   7.836  -4.754  1.00  0.00     0.139 C 
HETATM    4  O   UNL     1      38.883   6.742  -4.210  1.00  0.00    -0.650 OA
BRANCH   3   5
HETATM    5  C   UNL     1      39.422   8.000  -6.141  1.00  0.00     0.110 C 
BRANCH   5   6
HETATM    6  C   UNL     1      38.413   8.639  -7.106  1.00  0.00     0.014 C 
BRANCH   6   7
HETATM    7  C   UNL     1      38.887   9.995  -7.644  1.00  0.00     0.027 C 
BRANCH   7   8
HETATM    8  C   UNL     1      40.376  10.129  -7.444  1.00  0.00    -0.030 C 
HETATM    9  C   UNL     1      41.313   9.827  -8.363  1.00  0.00    -0.027 C 
BRANCH   9  10
HETATM   10  C   UNL     1      41.039   9.327  -9.759  1.00  0.00     0.053 C 
BRANCH  10  11
HETATM   11  C   UNL     1      40.623   7.872  -9.749  1.00  0.00    -0.027 C 
HETATM   12  C   UNL     1      39.732   7.268 -10.561  1.00  0.00    -0.027 C 
BRANCH  12  13
HETATM   13  C   UNL     1      38.955   7.901 -11.687  1.00  0.00     0.053 C 
BRANCH  13  14
HETATM   14  C   UNL     1      39.400   7.325 -13.010  1.00  0.00    -0.027 C 
HETATM   15  C   UNL     1      40.342   7.864 -13.811  1.00  0.00    -0.027 C 
BRANCH  15  16
HETATM   16  C   UNL     1      41.087   9.140 -13.515  1.00  0.00     0.053 C 
BRANCH  16  17
HETATM   17  C   UNL     1      41.219  10.001 -14.746  1.00  0.00    -0.027 C 
HETATM   18  C   UNL     1      40.256  10.826 -15.191  1.00  0.00    -0.030 C 
BRANCH  18  19
HETATM   19  C   UNL     1      38.907  11.003 -14.541  1.00  0.00     0.027 C 
BRANCH  19  20
HETATM   20  C   UNL     1      37.864  10.159 -15.281  1.00  0.00     0.004 C 
BRANCH  20  21
HETATM   21  C   UNL     1      38.344   9.794 -16.690  1.00  0.00    -0.000 C 
BRANCH  21  22
HETATM   22  C   UNL     1      38.356   8.273 -16.885  1.00  0.00    -0.005 C 
HETATM   23  C   UNL     1      39.667   7.808 -17.514  1.00  0.00     0.005 C 
ENDBRANCH  21  22
ENDBRANCH  20  21
ENDBRANCH  19  20
ENDBRANCH  18  19
ENDBRANCH  16  17
ENDBRANCH  15  16
ENDBRANCH  13  14
ENDBRANCH  12  13
ENDBRANCH  10  11
ENDBRANCH   9  10
ENDBRANCH   7   8
ENDBRANCH   6   7
ENDBRANCH   5   6
ENDBRANCH   3   5
ENDBRANCH   1   3
TORSDOF 15
ENDMDL
