MODEL 1
REMARK VINA RESULT:      -5.0      0.000      0.000
REMARK  15 active torsions:
REMARK  status: ('A' for Active; 'I' for Inactive)
REMARK    1  A    between atoms: O_1  and  C_23 
REMARK    2  A    between atoms: C_3  and  C_7 
REMARK    3  A    between atoms: C_3  and  C_8 
REMARK    4  A    between atoms: C_4  and  C_10 
REMARK    5  A    between atoms: C_4  and  C_11 
REMARK    6  A    between atoms: C_5  and  C_12 
REMARK    7  A    between atoms: C_5  and  C_13 
REMARK    8  A    between atoms: C_6  and  C_15 
REMARK    9  A    between atoms: C_6  and  C_16 
REMARK   10  A    between atoms: C_7  and  C_23 
REMARK   11  A    between atoms: C_9  and  C_17 
REMARK   12  A    between atoms: C_9  and  C_18 
REMARK   13  A    between atoms: C_14  and  C_19 
REMARK   14  A    between atoms: C_14  and  C_20 
REMARK   15  A    between atoms: C_21  and  C_22 
ROOT
HETATM    1  O   UNL     1      41.748  12.745 -23.490  1.00  0.00    -0.776 OA
HETATM    2  H   UNL     1      42.358  13.460 -23.720  1.00  0.00     0.167 HD
ENDROOT
BRANCH   1   3
HETATM    3  C   UNL     1      42.179  11.624 -22.874  1.00  0.00     0.139 C 
HETATM    4  O   UNL     1      42.899  11.705 -21.888  1.00  0.00    -0.650 OA
BRANCH   3   5
HETATM    5  C   UNL     1      41.769  10.278 -23.400  1.00  0.00     0.113 C 
BRANCH   5   6
HETATM    6  C   UNL     1      40.841   9.563 -22.411  1.00  0.00     0.037 C 
BRANCH   6   7
HETATM    7  C   UNL     1      39.848   8.694 -23.145  1.00  0.00    -0.030 C 
HETATM    8  C   UNL     1      39.271   7.561 -22.693  1.00  0.00    -0.027 C 
BRANCH   8   9
HETATM    9  C   UNL     1      39.478   6.894 -21.350  1.00  0.00     0.053 C 
BRANCH   9  10
HETATM   10  C   UNL     1      38.521   7.446 -20.323  1.00  0.00    -0.027 C 
HETATM   11  C   UNL     1      38.841   7.814 -19.069  1.00  0.00    -0.027 C 
BRANCH  11  12
HETATM   12  C   UNL     1      40.228   7.796 -18.480  1.00  0.00     0.053 C 
BRANCH  12  13
HETATM   13  C   UNL     1      40.967   9.071 -18.805  1.00  0.00    -0.027 C 
HETATM   14  C   UNL     1      41.024  10.181 -18.046  1.00  0.00    -0.027 C 
BRANCH  14  15
HETATM   15  C   UNL     1      40.319  10.396 -16.734  1.00  0.00     0.053 C 
BRANCH  15  16
HETATM   16  C   UNL     1      38.947  10.969 -17.014  1.00  0.00    -0.027 C 
HETATM   17  C   UNL     1      37.792  10.708 -16.368  1.00  0.00    -0.027 C 
BRANCH  17  18
HETATM   18  C   UNL     1      37.596   9.790 -15.191  1.00  0.00     0.053 C 
BRANCH  18  19
HETATM   19  C   UNL     1      37.595   8.346 -15.636  1.00  0.00    -0.027 C 
HETATM   20  C   UNL     1      38.275   7.318 -15.088  1.00  0.00    -0.027 C 
BRANCH  20  21
HETATM   21  C   UNL     1      39.157   7.359 -13.865  1.00  0.00     0.053 C 
BRANCH  21  22
HETATM   22  C   UNL     1      40.567   7.758 -14.231  1.00  0.00    -0.027 C 
HETATM   23  C   UNL     1      41.226   8.869 -13.848  1.00  0.00    -0.031 C 
BRANCH  23  24
HETATM   24  C   UNL     1      40.688   9.976 -12.979  1.00  0.00     0.022 C 
HETATM   25  C   UNL     1      40.802   9.659 -11.494  1.00  0.00     0.009 C 
ENDBRANCH  23  24
ENDBRANCH  21  22
ENDBRANCH  20  21
ENDBRANCH  18  19
ENDBRANCH  17  18
ENDBRANCH  15  16
ENDBRANCH  14  15
ENDBRANCH  12  13
ENDBRANCH  11  12
ENDBRANCH   9  10
ENDBRANCH   8   9
ENDBRANCH   6   7
ENDBRANCH   5   6
ENDBRANCH   3   5
ENDBRANCH   1   3
TORSDOF 15
ENDMDL
MODEL 2
REMARK VINA RESULT:      -5.0     26.637     29.168
REMARK  15 active torsions:
REMARK  status: ('A' for Active; 'I' for Inactive)
REMARK    1  A    between atoms: O_1  and  C_23 
REMARK    2  A    between atoms: C_3  and  C_7 
REMARK    3  A    between atoms: C_3  and  C_8 
REMARK    4  A    between atoms: C_4  and  C_10 
REMARK    5  A    between atoms: C_4  and  C_11 
REMARK    6  A    between atoms: C_5  and  C_12 
REMARK    7  A    between atoms: C_5  and  C_13 
REMARK    8  A    between atoms: C_6  and  C_15 
REMARK    9  A    between atoms: C_6  and  C_16 
REMARK   10  A    between atoms: C_7  and  C_23 
REMARK   11  A    between atoms: C_9  and  C_17 
REMARK   12  A    between atoms: C_9  and  C_18 
REMARK   13  A    between atoms: C_14  and  C_19 
REMARK   14  A    between atoms: C_14  and  C_20 
REMARK   15  A    between atoms: C_21  and  C_22 
ROOT
HETATM    1  O   UNL     1      31.825 -20.918 -14.847  1.00  0.00    -0.776 OA
HETATM    2  H   UNL     1      31.473 -21.591 -14.249  1.00  0.00     0.167 HD
ENDROOT
BRANCH   1   3
HETATM    3  C   UNL     1      31.047 -20.328 -15.779  1.00  0.00     0.139 C 
HETATM    4  O   UNL     1      30.851 -20.881 -16.852  1.00  0.00    -0.650 OA
BRANCH   3   5
HETATM    5  C   UNL     1      30.420 -18.993 -15.492  1.00  0.00     0.113 C 
BRANCH   5   6
HETATM    6  C   UNL     1      29.854 -18.949 -14.068  1.00  0.00     0.037 C 
BRANCH   6   7
HETATM    7  C   UNL     1      30.520 -17.858 -13.265  1.00  0.00    -0.030 C 
HETATM    8  C   UNL     1      30.645 -17.800 -11.922  1.00  0.00    -0.027 C 
BRANCH   8   9
HETATM    9  C   UNL     1      30.150 -18.807 -10.906  1.00  0.00     0.053 C 
BRANCH   9  10
HETATM   10  C   UNL     1      31.256 -19.746 -10.498  1.00  0.00    -0.027 C 
HETATM   11  C   UNL     1      31.315 -20.437  -9.345  1.00  0.00    -0.027 C 
BRANCH  11  12
HETATM   12  C   UNL     1      30.256 -20.443  -8.275  1.00  0.00     0.053 C 
BRANCH  12  13
HETATM   13  C   UNL     1      30.768 -19.804  -7.007  1.00  0.00    -0.027 C 
HETATM   14  C   UNL     1      30.749 -18.493  -6.705  1.00  0.00    -0.027 C 
BRANCH  14  15
HETATM   15  C   UNL     1      30.255 -17.384  -7.596  1.00  0.00     0.053 C 
BRANCH  15  16
HETATM   16  C   UNL     1      31.450 -16.722  -8.246  1.00  0.00    -0.027 C 
HETATM   17  C   UNL     1      31.930 -15.481  -8.029  1.00  0.00    -0.027 C 
BRANCH  17  18
HETATM   18  C   UNL     1      31.397 -14.456  -7.062  1.00  0.00     0.053 C 
BRANCH  18  19
HETATM   19  C   UNL     1      30.377 -13.568  -7.735  1.00  0.00    -0.027 C 
HETATM   20  C   UNL     1      30.606 -12.436  -8.432  1.00  0.00    -0.027 C 
BRANCH  20  21
HETATM   21  C   UNL     1      31.946 -11.820  -8.751  1.00  0.00     0.053 C 
BRANCH  21  22
HETATM   22  C   UNL     1      31.949 -11.227 -10.141  1.00  0.00    -0.027 C 
HETATM   23  C   UNL     1      32.412 -11.798 -11.270  1.00  0.00    -0.031 C 
BRANCH  23  24
HETATM   24  C   UNL     1      33.052 -13.156 -11.391  1.00  0.00     0.022 C 
HETATM   25  C   UNL     1      32.030 -14.265 -11.610  1.00  0.00     0.009 C 
ENDBRANCH  23  24
ENDBRANCH  21  22
ENDBRANCH  20  21
ENDBRANCH  18  19
ENDBRANCH  17  18
ENDBRANCH  15  16
ENDBRANCH  14  15
ENDBRANCH  12  13
ENDBRANCH  11  12
ENDBRANCH   9  10
ENDBRANCH   8   9
ENDBRANCH   6   7
ENDBRANCH   5   6
ENDBRANCH   3   5
ENDBRANCH   1   3
TORSDOF 15
ENDMDL
MODEL 3
REMARK VINA RESULT:      -5.0     26.945     29.737
REMARK  15 active torsions:
REMARK  status: ('A' for Active; 'I' for Inactive)
REMARK    1  A    between atoms: O_1  and  C_23 
REMARK    2  A    between atoms: C_3  and  C_7 
REMARK    3  A    between atoms: C_3  and  C_8 
REMARK    4  A    between atoms: C_4  and  C_10 
REMARK    5  A    between atoms: C_4  and  C_11 
REMARK    6  A    between atoms: C_5  and  C_12 
REMARK    7  A    between atoms: C_5  and  C_13 
REMARK    8  A    between atoms: C_6  and  C_15 
REMARK    9  A    between atoms: C_6  and  C_16 
REMARK   10  A    between atoms: C_7  and  C_23 
REMARK   11  A    between atoms: C_9  and  C_17 
REMARK   12  A    between atoms: C_9  and  C_18 
REMARK   13  A    between atoms: C_14  and  C_19 
REMARK   14  A    between atoms: C_14  and  C_20 
REMARK   15  A    between atoms: C_21  and  C_22 
ROOT
HETATM    1  O   UNL     1      31.464 -21.264 -10.156  1.00  0.00    -0.776 OA
HETATM    2  H   UNL     1      32.119 -20.910 -10.773  1.00  0.00     0.167 HD
ENDROOT
BRANCH   1   3
HETATM    3  C   UNL     1      30.756 -20.455  -9.339  1.00  0.00     0.139 C 
HETATM    4  O   UNL     1      29.737 -20.867  -8.802  1.00  0.00    -0.650 OA
BRANCH   3   5
HETATM    5  C   UNL     1      31.226 -19.051  -9.090  1.00  0.00     0.113 C 
BRANCH   5   6
HETATM    6  C   UNL     1      30.075 -18.168  -8.595  1.00  0.00     0.037 C 
BRANCH   6   7
HETATM    7  C   UNL     1      30.382 -17.610  -7.226  1.00  0.00    -0.030 C 
HETATM    8  C   UNL     1      30.699 -16.333  -6.922  1.00  0.00    -0.027 C 
BRANCH   8   9
HETATM    9  C   UNL     1      30.821 -15.162  -7.874  1.00  0.00     0.053 C 
BRANCH   9  10
HETATM   10  C   UNL     1      30.294 -13.899  -7.241  1.00  0.00    -0.027 C 
HETATM   11  C   UNL     1      29.172 -13.250  -7.599  1.00  0.00    -0.027 C 
BRANCH  11  12
HETATM   12  C   UNL     1      28.204 -13.699  -8.662  1.00  0.00     0.053 C 
BRANCH  12  13
HETATM   13  C   UNL     1      28.616 -13.182 -10.018  1.00  0.00    -0.027 C 
HETATM   14  C   UNL     1      28.998 -13.921 -11.077  1.00  0.00    -0.027 C 
BRANCH  14  15
HETATM   15  C   UNL     1      29.140 -15.420 -11.108  1.00  0.00     0.053 C 
BRANCH  15  16
HETATM   16  C   UNL     1      30.545 -15.761 -11.551  1.00  0.00    -0.027 C 
HETATM   17  C   UNL     1      30.983 -16.908 -12.108  1.00  0.00    -0.027 C 
BRANCH  17  18
HETATM   18  C   UNL     1      30.165 -18.127 -12.442  1.00  0.00     0.053 C 
BRANCH  18  19
HETATM   19  C   UNL     1      30.979 -19.112 -13.249  1.00  0.00    -0.027 C 
HETATM   20  C   UNL     1      31.008 -19.248 -14.590  1.00  0.00    -0.027 C 
BRANCH  20  21
HETATM   21  C   UNL     1      30.272 -18.410 -15.606  1.00  0.00     0.053 C 
BRANCH  21  22
HETATM   22  C   UNL     1      31.013 -17.121 -15.877  1.00  0.00    -0.027 C 
HETATM   23  C   UNL     1      30.572 -15.866 -15.661  1.00  0.00    -0.031 C 
BRANCH  23  24
HETATM   24  C   UNL     1      29.225 -15.471 -15.114  1.00  0.00     0.022 C 
HETATM   25  C   UNL     1      29.151 -13.990 -14.762  1.00  0.00     0.009 C 
ENDBRANCH  23  24
ENDBRANCH  21  22
ENDBRANCH  20  21
ENDBRANCH  18  19
ENDBRANCH  17  18
ENDBRANCH  15  16
ENDBRANCH  14  15
ENDBRANCH  12  13
ENDBRANCH  11  12
ENDBRANCH   9  10
ENDBRANCH   8   9
ENDBRANCH   6   7
ENDBRANCH   5   6
ENDBRANCH   3   5
ENDBRANCH   1   3
TORSDOF 15
ENDMDL
MODEL 4
REMARK VINA RESULT:      -4.9     26.499     29.119
REMARK  15 active torsions:
REMARK  status: ('A' for Active; 'I' for Inactive)
REMARK    1  A    between atoms: O_1  and  C_23 
REMARK    2  A    between atoms: C_3  and  C_7 
REMARK    3  A    between atoms: C_3  and  C_8 
REMARK    4  A    between atoms: C_4  and  C_10 
REMARK    5  A    between atoms: C_4  and  C_11 
REMARK    6  A    between atoms: C_5  and  C_12 
REMARK    7  A    between atoms: C_5  and  C_13 
REMARK    8  A    between atoms: C_6  and  C_15 
REMARK    9  A    between atoms: C_6  and  C_16 
REMARK   10  A    between atoms: C_7  and  C_23 
REMARK   11  A    between atoms: C_9  and  C_17 
REMARK   12  A    between atoms: C_9  and  C_18 
REMARK   13  A    between atoms: C_14  and  C_19 
REMARK   14  A    between atoms: C_14  and  C_20 
REMARK   15  A    between atoms: C_21  and  C_22 
ROOT
HETATM    1  O   UNL     1      29.886 -21.102  -8.905  1.00  0.00    -0.776 OA
HETATM    2  H   UNL     1      30.193 -21.463  -8.062  1.00  0.00     0.167 HD
ENDROOT
BRANCH   1   3
HETATM    3  C   UNL     1      30.732 -20.489  -9.759  1.00  0.00     0.139 C 
HETATM    4  O   UNL     1      31.073 -21.050 -10.791  1.00  0.00    -0.650 OA
BRANCH   3   5
HETATM    5  C   UNL     1      31.251 -19.116  -9.440  1.00  0.00     0.113 C 
BRANCH   5   6
HETATM    6  C   UNL     1      30.275 -18.037  -9.923  1.00  0.00     0.037 C 
BRANCH   6   7
HETATM    7  C   UNL     1      30.178 -18.043 -11.430  1.00  0.00    -0.030 C 
HETATM    8  C   UNL     1      30.145 -16.968 -12.246  1.00  0.00    -0.027 C 
BRANCH   8   9
HETATM    9  C   UNL     1      30.197 -15.508 -11.849  1.00  0.00     0.053 C 
BRANCH   9  10
HETATM   10  C   UNL     1      28.834 -15.018 -11.428  1.00  0.00    -0.027 C 
HETATM   11  C   UNL     1      28.043 -14.192 -12.137  1.00  0.00    -0.027 C 
BRANCH  11  12
HETATM   12  C   UNL     1      28.350 -13.652 -13.509  1.00  0.00     0.053 C 
BRANCH  12  13
HETATM   13  C   UNL     1      29.316 -12.496 -13.429  1.00  0.00    -0.027 C 
HETATM   14  C   UNL     1      29.838 -11.812 -14.464  1.00  0.00    -0.027 C 
BRANCH  14  15
HETATM   15  C   UNL     1      29.601 -12.096 -15.924  1.00  0.00     0.053 C 
BRANCH  15  16
HETATM   16  C   UNL     1      30.850 -12.726 -16.500  1.00  0.00    -0.027 C 
HETATM   17  C   UNL     1      30.959 -13.898 -17.158  1.00  0.00    -0.027 C 
BRANCH  17  18
HETATM   18  C   UNL     1      29.849 -14.857 -17.497  1.00  0.00     0.053 C 
BRANCH  18  19
HETATM   19  C   UNL     1      29.353 -15.559 -16.254  1.00  0.00    -0.027 C 
HETATM   20  C   UNL     1      29.840 -16.688 -15.699  1.00  0.00    -0.027 C 
BRANCH  20  21
HETATM   21  C   UNL     1      31.033 -17.487 -16.160  1.00  0.00     0.053 C 
BRANCH  21  22
HETATM   22  C   UNL     1      30.596 -18.698 -16.952  1.00  0.00    -0.027 C 
HETATM   23  C   UNL     1      30.658 -19.988 -16.570  1.00  0.00    -0.031 C 
BRANCH  23  24
HETATM   24  C   UNL     1      31.199 -20.512 -15.265  1.00  0.00     0.022 C 
HETATM   25  C   UNL     1      30.173 -20.451 -14.141  1.00  0.00     0.009 C 
ENDBRANCH  23  24
ENDBRANCH  21  22
ENDBRANCH  20  21
ENDBRANCH  18  19
ENDBRANCH  17  18
ENDBRANCH  15  16
ENDBRANCH  14  15
ENDBRANCH  12  13
ENDBRANCH  11  12
ENDBRANCH   9  10
ENDBRANCH   8   9
ENDBRANCH   6   7
ENDBRANCH   5   6
ENDBRANCH   3   5
ENDBRANCH   1   3
TORSDOF 15
ENDMDL
MODEL 5
REMARK VINA RESULT:      -4.8      5.735      9.632
REMARK  15 active torsions:
REMARK  status: ('A' for Active; 'I' for Inactive)
REMARK    1  A    between atoms: O_1  and  C_23 
REMARK    2  A    between atoms: C_3  and  C_7 
REMARK    3  A    between atoms: C_3  and  C_8 
REMARK    4  A    between atoms: C_4  and  C_10 
REMARK    5  A    between atoms: C_4  and  C_11 
REMARK    6  A    between atoms: C_5  and  C_12 
REMARK    7  A    between atoms: C_5  and  C_13 
REMARK    8  A    between atoms: C_6  and  C_15 
REMARK    9  A    between atoms: C_6  and  C_16 
REMARK   10  A    between atoms: C_7  and  C_23 
REMARK   11  A    between atoms: C_9  and  C_17 
REMARK   12  A    between atoms: C_9  and  C_18 
REMARK   13  A    between atoms: C_14  and  C_19 
REMARK   14  A    between atoms: C_14  and  C_20 
REMARK   15  A    between atoms: C_21  and  C_22 
ROOT
HETATM    1  O   UNL     1      42.704  13.451  -7.877  1.00  0.00    -0.776 OA
HETATM    2  H   UNL     1      42.741  14.071  -7.136  1.00  0.00     0.167 HD
ENDROOT
BRANCH   1   3
HETATM    3  C   UNL     1      42.351  12.160  -7.697  1.00  0.00     0.139 C 
HETATM    4  O   UNL     1      42.636  11.586  -6.656  1.00  0.00    -0.650 OA
BRANCH   3   5
HETATM    5  C   UNL     1      41.604  11.434  -8.779  1.00  0.00     0.113 C 
BRANCH   5   6
HETATM    6  C   UNL     1      41.059  10.096  -8.265  1.00  0.00     0.037 C 
BRANCH   6   7
HETATM    7  C   UNL     1      41.462   8.969  -9.185  1.00  0.00    -0.030 C 
HETATM    8  C   UNL     1      40.752   7.855  -9.463  1.00  0.00    -0.027 C 
BRANCH   8   9
HETATM    9  C   UNL     1      39.391   7.471  -8.924  1.00  0.00     0.053 C 
BRANCH   9  10
HETATM   10  C   UNL     1      38.375   7.392 -10.035  1.00  0.00    -0.027 C 
HETATM   11  C   UNL     1      37.639   8.417 -10.501  1.00  0.00    -0.027 C 
BRANCH  11  12
HETATM   12  C   UNL     1      37.737   9.846 -10.035  1.00  0.00     0.053 C 
BRANCH  12  13
HETATM   13  C   UNL     1      36.646  10.688 -10.647  1.00  0.00    -0.027 C 
HETATM   14  C   UNL     1      36.445  10.911 -11.960  1.00  0.00    -0.027 C 
BRANCH  14  15
HETATM   15  C   UNL     1      37.302  10.401 -13.087  1.00  0.00     0.053 C 
BRANCH  15  16
HETATM   16  C   UNL     1      38.383  11.421 -13.369  1.00  0.00    -0.027 C 
HETATM   17  C   UNL     1      39.688  11.357 -13.039  1.00  0.00    -0.027 C 
BRANCH  17  18
HETATM   18  C   UNL     1      40.391  10.235 -12.322  1.00  0.00     0.053 C 
BRANCH  18  19
HETATM   19  C   UNL     1      41.130   9.355 -13.303  1.00  0.00    -0.027 C 
HETATM   20  C   UNL     1      40.711   8.189 -13.836  1.00  0.00    -0.027 C 
BRANCH  20  21
HETATM   21  C   UNL     1      39.378   7.516 -13.619  1.00  0.00     0.053 C 
BRANCH  21  22
HETATM   22  C   UNL     1      38.871   6.900 -14.902  1.00  0.00    -0.027 C 
HETATM   23  C   UNL     1      38.687   7.517 -16.086  1.00  0.00    -0.031 C 
BRANCH  23  24
HETATM   24  C   UNL     1      38.930   8.973 -16.386  1.00  0.00     0.022 C 
HETATM   25  C   UNL     1      37.638   9.742 -16.627  1.00  0.00     0.009 C 
ENDBRANCH  23  24
ENDBRANCH  21  22
ENDBRANCH  20  21
ENDBRANCH  18  19
ENDBRANCH  17  18
ENDBRANCH  15  16
ENDBRANCH  14  15
ENDBRANCH  12  13
ENDBRANCH  11  12
ENDBRANCH   9  10
ENDBRANCH   8   9
ENDBRANCH   6   7
ENDBRANCH   5   6
ENDBRANCH   3   5
ENDBRANCH   1   3
TORSDOF 15
ENDMDL
MODEL 6
REMARK VINA RESULT:      -4.8     25.860     28.791
REMARK  15 active torsions:
REMARK  status: ('A' for Active; 'I' for Inactive)
REMARK    1  A    between atoms: O_1  and  C_23 
REMARK    2  A    between atoms: C_3  and  C_7 
REMARK    3  A    between atoms: C_3  and  C_8 
REMARK    4  A    between atoms: C_4  and  C_10 
REMARK    5  A    between atoms: C_4  and  C_11 
REMARK    6  A    between atoms: C_5  and  C_12 
REMARK    7  A    between atoms: C_5  and  C_13 
REMARK    8  A    between atoms: C_6  and  C_15 
REMARK    9  A    between atoms: C_6  and  C_16 
REMARK   10  A    between atoms: C_7  and  C_23 
REMARK   11  A    between atoms: C_9  and  C_17 
REMARK   12  A    between atoms: C_9  and  C_18 
REMARK   13  A    between atoms: C_14  and  C_19 
REMARK   14  A    between atoms: C_14  and  C_20 
REMARK   15  A    between atoms: C_21  and  C_22 
ROOT
HETATM    1  O   UNL     1      32.207 -20.839 -10.258  1.00  0.00    -0.776 OA
HETATM    2  H   UNL     1      32.584 -21.056  -9.394  1.00  0.00     0.167 HD
ENDROOT
BRANCH   1   3
HETATM    3  C   UNL     1      30.981 -20.286 -10.372  1.00  0.00     0.139 C 
HETATM    4  O   UNL     1      30.612 -19.831 -11.445  1.00  0.00    -0.650 OA
BRANCH   3   5
HETATM    5  C   UNL     1      30.071 -20.235  -9.178  1.00  0.00     0.113 C 
BRANCH   5   6
HETATM    6  C   UNL     1      29.881 -18.792  -8.696  1.00  0.00     0.037 C 
BRANCH   6   7
HETATM    7  C   UNL     1      30.262 -18.663  -7.240  1.00  0.00    -0.030 C 
HETATM    8  C   UNL     1      30.619 -17.534  -6.591  1.00  0.00    -0.027 C 
BRANCH   8   9
HETATM    9  C   UNL     1      30.722 -16.136  -7.163  1.00  0.00     0.053 C 
BRANCH   9  10
HETATM   10  C   UNL     1      29.522 -15.309  -6.777  1.00  0.00    -0.027 C 
HETATM   11  C   UNL     1      28.710 -14.658  -7.630  1.00  0.00    -0.027 C 
BRANCH  11  12
HETATM   12  C   UNL     1      28.817 -14.686  -9.132  1.00  0.00     0.053 C 
BRANCH  12  13
HETATM   13  C   UNL     1      28.243 -13.429  -9.736  1.00  0.00    -0.027 C 
HETATM   14  C   UNL     1      28.854 -12.606 -10.610  1.00  0.00    -0.027 C 
BRANCH  14  15
HETATM   15  C   UNL     1      30.260 -12.749 -11.128  1.00  0.00     0.053 C 
BRANCH  15  16
HETATM   16  C   UNL     1      31.106 -11.647 -10.530  1.00  0.00    -0.027 C 
HETATM   17  C   UNL     1      31.800 -11.669  -9.374  1.00  0.00    -0.027 C 
BRANCH  17  18
HETATM   18  C   UNL     1      31.914 -12.815  -8.404  1.00  0.00     0.053 C 
BRANCH  18  19
HETATM   19  C   UNL     1      33.327 -13.350  -8.373  1.00  0.00    -0.027 C 
HETATM   20  C   UNL     1      33.908 -14.186  -9.257  1.00  0.00    -0.027 C 
BRANCH  20  21
HETATM   21  C   UNL     1      33.298 -14.742 -10.519  1.00  0.00     0.053 C 
BRANCH  21  22
HETATM   22  C   UNL     1      32.263 -15.795 -10.198  1.00  0.00    -0.027 C 
HETATM   23  C   UNL     1      31.403 -16.382 -11.053  1.00  0.00    -0.031 C 
BRANCH  23  24
HETATM   24  C   UNL     1      31.272 -16.100 -12.527  1.00  0.00     0.022 C 
HETATM   25  C   UNL     1      29.819 -15.997 -12.974  1.00  0.00     0.009 C 
ENDBRANCH  23  24
ENDBRANCH  21  22
ENDBRANCH  20  21
ENDBRANCH  18  19
ENDBRANCH  17  18
ENDBRANCH  15  16
ENDBRANCH  14  15
ENDBRANCH  12  13
ENDBRANCH  11  12
ENDBRANCH   9  10
ENDBRANCH   8   9
ENDBRANCH   6   7
ENDBRANCH   5   6
ENDBRANCH   3   5
ENDBRANCH   1   3
TORSDOF 15
ENDMDL
MODEL 7
REMARK VINA RESULT:      -4.8     25.978     28.502
REMARK  15 active torsions:
REMARK  status: ('A' for Active; 'I' for Inactive)
REMARK    1  A    between atoms: O_1  and  C_23 
REMARK    2  A    between atoms: C_3  and  C_7 
REMARK    3  A    between atoms: C_3  and  C_8 
REMARK    4  A    between atoms: C_4  and  C_10 
REMARK    5  A    between atoms: C_4  and  C_11 
REMARK    6  A    between atoms: C_5  and  C_12 
REMARK    7  A    between atoms: C_5  and  C_13 
REMARK    8  A    between atoms: C_6  and  C_15 
REMARK    9  A    between atoms: C_6  and  C_16 
REMARK   10  A    between atoms: C_7  and  C_23 
REMARK   11  A    between atoms: C_9  and  C_17 
REMARK   12  A    between atoms: C_9  and  C_18 
REMARK   13  A    between atoms: C_14  and  C_19 
REMARK   14  A    between atoms: C_14  and  C_20 
REMARK   15  A    between atoms: C_21  and  C_22 
ROOT
HETATM    1  O   UNL     1      32.126 -21.002 -14.913  1.00  0.00    -0.776 OA
HETATM    2  H   UNL     1      32.271 -21.803 -14.391  1.00  0.00     0.167 HD
ENDROOT
BRANCH   1   3
HETATM    3  C   UNL     1      30.882 -20.540 -15.162  1.00  0.00     0.139 C 
HETATM    4  O   UNL     1      30.508 -20.375 -16.315  1.00  0.00    -0.650 OA
BRANCH   3   5
HETATM    5  C   UNL     1      29.958 -20.232 -14.018  1.00  0.00     0.113 C 
BRANCH   5   6
HETATM    6  C   UNL     1      29.577 -18.747 -14.007  1.00  0.00     0.037 C 
BRANCH   6   7
HETATM    7  C   UNL     1      30.804 -17.884 -13.831  1.00  0.00    -0.030 C 
HETATM    8  C   UNL     1      31.105 -17.107 -12.769  1.00  0.00    -0.027 C 
BRANCH   8   9
HETATM    9  C   UNL     1      30.290 -16.915 -11.507  1.00  0.00     0.053 C 
BRANCH   9  10
HETATM   10  C   UNL     1      30.368 -18.136 -10.627  1.00  0.00    -0.027 C 
HETATM   11  C   UNL     1      30.911 -18.185  -9.397  1.00  0.00    -0.027 C 
BRANCH  11  12
HETATM   12  C   UNL     1      31.489 -17.011  -8.650  1.00  0.00     0.053 C 
BRANCH  12  13
HETATM   13  C   UNL     1      30.584 -16.595  -7.517  1.00  0.00    -0.027 C 
HETATM   14  C   UNL     1      29.798 -15.503  -7.477  1.00  0.00    -0.027 C 
BRANCH  14  15
HETATM   15  C   UNL     1      29.699 -14.443  -8.541  1.00  0.00     0.053 C 
BRANCH  15  16
HETATM   16  C   UNL     1      28.466 -14.713  -9.375  1.00  0.00    -0.027 C 
HETATM   17  C   UNL     1      28.053 -14.058 -10.479  1.00  0.00    -0.027 C 
BRANCH  17  18
HETATM   18  C   UNL     1      28.737 -12.902 -11.160  1.00  0.00     0.053 C 
BRANCH  18  19
HETATM   19  C   UNL     1      29.437 -13.362 -12.417  1.00  0.00    -0.027 C 
HETATM   20  C   UNL     1      30.761 -13.343 -12.673  1.00  0.00    -0.027 C 
BRANCH  20  21
HETATM   21  C   UNL     1      31.862 -12.907 -11.739  1.00  0.00     0.053 C 
BRANCH  21  22
HETATM   22  C   UNL     1      32.367 -14.073 -10.921  1.00  0.00    -0.027 C 
HETATM   23  C   UNL     1      33.522 -14.747 -11.090  1.00  0.00    -0.031 C 
BRANCH  23  24
HETATM   24  C   UNL     1      34.561 -14.496 -12.150  1.00  0.00     0.022 C 
HETATM   25  C   UNL     1      34.487 -15.503 -13.290  1.00  0.00     0.009 C 
ENDBRANCH  23  24
ENDBRANCH  21  22
ENDBRANCH  20  21
ENDBRANCH  18  19
ENDBRANCH  17  18
ENDBRANCH  15  16
ENDBRANCH  14  15
ENDBRANCH  12  13
ENDBRANCH  11  12
ENDBRANCH   9  10
ENDBRANCH   8   9
ENDBRANCH   6   7
ENDBRANCH   5   6
ENDBRANCH   3   5
ENDBRANCH   1   3
TORSDOF 15
ENDMDL
MODEL 8
REMARK VINA RESULT:      -4.8      3.953      8.929
REMARK  15 active torsions:
REMARK  status: ('A' for Active; 'I' for Inactive)
REMARK    1  A    between atoms: O_1  and  C_23 
REMARK    2  A    between atoms: C_3  and  C_7 
REMARK    3  A    between atoms: C_3  and  C_8 
REMARK    4  A    between atoms: C_4  and  C_10 
REMARK    5  A    between atoms: C_4  and  C_11 
REMARK    6  A    between atoms: C_5  and  C_12 
REMARK    7  A    between atoms: C_5  and  C_13 
REMARK    8  A    between atoms: C_6  and  C_15 
REMARK    9  A    between atoms: C_6  and  C_16 
REMARK   10  A    between atoms: C_7  and  C_23 
REMARK   11  A    between atoms: C_9  and  C_17 
REMARK   12  A    between atoms: C_9  and  C_18 
REMARK   13  A    between atoms: C_14  and  C_19 
REMARK   14  A    between atoms: C_14  and  C_20 
REMARK   15  A    between atoms: C_21  and  C_22 
ROOT
HETATM    1  O   UNL     1      38.937  11.857 -10.364  1.00  0.00    -0.776 OA
HETATM    2  H   UNL     1      38.557  12.181 -11.193  1.00  0.00     0.167 HD
ENDROOT
BRANCH   1   3
HETATM    3  C   UNL     1      40.201  11.386 -10.306  1.00  0.00     0.139 C 
HETATM    4  O   UNL     1      40.851  11.248 -11.333  1.00  0.00    -0.650 OA
BRANCH   3   5
HETATM    5  C   UNL     1      40.807  11.036  -8.977  1.00  0.00     0.113 C 
BRANCH   5   6
HETATM    6  C   UNL     1      41.172   9.548  -8.917  1.00  0.00     0.037 C 
BRANCH   6   7
HETATM    7  C   UNL     1      40.405   8.857  -7.814  1.00  0.00    -0.030 C 
HETATM    8  C   UNL     1      39.543   7.826  -7.947  1.00  0.00    -0.027 C 
BRANCH   8   9
HETATM    9  C   UNL     1      39.140   7.121  -9.225  1.00  0.00     0.053 C 
BRANCH   9  10
HETATM   10  C   UNL     1      38.374   8.051 -10.132  1.00  0.00    -0.027 C 
HETATM   11  C   UNL     1      38.590   8.217 -11.449  1.00  0.00    -0.027 C 
BRANCH  11  12
HETATM   12  C   UNL     1      39.600   7.461 -12.272  1.00  0.00     0.053 C 
BRANCH  12  13
HETATM   13  C   UNL     1      40.257   8.367 -13.284  1.00  0.00    -0.027 C 
HETATM   14  C   UNL     1      39.958   8.458 -14.593  1.00  0.00    -0.027 C 
BRANCH  14  15
HETATM   15  C   UNL     1      38.935   7.634 -15.329  1.00  0.00     0.053 C 
BRANCH  15  16
HETATM   16  C   UNL     1      37.603   8.349 -15.262  1.00  0.00    -0.027 C 
HETATM   17  C   UNL     1      37.204   9.425 -15.970  1.00  0.00    -0.027 C 
BRANCH  17  18
HETATM   18  C   UNL     1      37.990  10.165 -17.020  1.00  0.00     0.053 C 
BRANCH  18  19
HETATM   19  C   UNL     1      37.560   9.742 -18.405  1.00  0.00    -0.027 C 
HETATM   20  C   UNL     1      38.038   8.713 -19.134  1.00  0.00    -0.027 C 
BRANCH  20  21
HETATM   21  C   UNL     1      39.080   7.706 -18.714  1.00  0.00     0.053 C 
BRANCH  21  22
HETATM   22  C   UNL     1      40.359   7.898 -19.494  1.00  0.00    -0.027 C 
HETATM   23  C   UNL     1      41.375   8.734 -19.202  1.00  0.00    -0.031 C 
BRANCH  23  24
HETATM   24  C   UNL     1      41.448   9.683 -18.034  1.00  0.00     0.022 C 
HETATM   25  C   UNL     1      41.167  11.125 -18.435  1.00  0.00     0.009 C 
ENDBRANCH  23  24
ENDBRANCH  21  22
ENDBRANCH  20  21
ENDBRANCH  18  19
ENDBRANCH  17  18
ENDBRANCH  15  16
ENDBRANCH  14  15
ENDBRANCH  12  13
ENDBRANCH  11  12
ENDBRANCH   9  10
ENDBRANCH   8   9
ENDBRANCH   6   7
ENDBRANCH   5   6
ENDBRANCH   3   5
ENDBRANCH   1   3
TORSDOF 15
ENDMDL
MODEL 9
REMARK VINA RESULT:      -4.8      3.301      5.844
REMARK  15 active torsions:
REMARK  status: ('A' for Active; 'I' for Inactive)
REMARK    1  A    between atoms: O_1  and  C_23 
REMARK    2  A    between atoms: C_3  and  C_7 
REMARK    3  A    between atoms: C_3  and  C_8 
REMARK    4  A    between atoms: C_4  and  C_10 
REMARK    5  A    between atoms: C_4  and  C_11 
REMARK    6  A    between atoms: C_5  and  C_12 
REMARK    7  A    between atoms: C_5  and  C_13 
REMARK    8  A    between atoms: C_6  and  C_15 
REMARK    9  A    between atoms: C_6  and  C_16 
REMARK   10  A    between atoms: C_7  and  C_23 
REMARK   11  A    between atoms: C_9  and  C_17 
REMARK   12  A    between atoms: C_9  and  C_18 
REMARK   13  A    between atoms: C_14  and  C_19 
REMARK   14  A    between atoms: C_14  and  C_20 
REMARK   15  A    between atoms: C_21  and  C_22 
ROOT
HETATM    1  O   UNL     1      43.420  11.293 -18.397  1.00  0.00    -0.776 OA
HETATM    2  H   UNL     1      44.105  10.681 -18.700  1.00  0.00     0.167 HD
ENDROOT
BRANCH   1   3
HETATM    3  C   UNL     1      42.117  11.092 -18.688  1.00  0.00     0.139 C 
HETATM    4  O   UNL     1      41.725  11.192 -19.842  1.00  0.00    -0.650 OA
BRANCH   3   5
HETATM    5  C   UNL     1      41.153  10.742 -17.591  1.00  0.00     0.113 C 
BRANCH   5   6
HETATM    6  C   UNL     1      40.713   9.277 -17.695  1.00  0.00     0.037 C 
BRANCH   6   7
HETATM    7  C   UNL     1      39.314   9.180 -18.254  1.00  0.00    -0.030 C 
HETATM    8  C   UNL     1      38.174   8.974 -17.561  1.00  0.00    -0.027 C 
BRANCH   8   9
HETATM    9  C   UNL     1      38.026   8.791 -16.065  1.00  0.00     0.053 C 
BRANCH   9  10
HETATM   10  C   UNL     1      38.246   7.351 -15.676  1.00  0.00    -0.027 C 
HETATM   11  C   UNL     1      38.960   6.924 -14.619  1.00  0.00    -0.027 C 
BRANCH  11  12
HETATM   12  C   UNL     1      39.621   7.809 -13.595  1.00  0.00     0.053 C 
BRANCH  12  13
HETATM   13  C   UNL     1      40.962   8.294 -14.089  1.00  0.00    -0.027 C 
HETATM   14  C   UNL     1      41.504   9.508 -13.879  1.00  0.00    -0.027 C 
BRANCH  14  15
HETATM   15  C   UNL     1      40.858  10.653 -13.145  1.00  0.00     0.053 C 
BRANCH  15  16
HETATM   16  C   UNL     1      41.515  10.787 -11.789  1.00  0.00    -0.027 C 
HETATM   17  C   UNL     1      41.104  10.272 -10.614  1.00  0.00    -0.027 C 
BRANCH  17  18
HETATM   18  C   UNL     1      39.889   9.414 -10.373  1.00  0.00     0.053 C 
BRANCH  18  19
HETATM   19  C   UNL     1      40.293   8.043  -9.882  1.00  0.00    -0.027 C 
HETATM   20  C   UNL     1      39.981   7.468  -8.703  1.00  0.00    -0.027 C 
BRANCH  20  21
HETATM   21  C   UNL     1      39.106   8.040  -7.615  1.00  0.00     0.053 C 
BRANCH  21  22
HETATM   22  C   UNL     1      39.092   7.136  -6.405  1.00  0.00    -0.027 C 
HETATM   23  C   UNL     1      39.391   7.470  -5.134  1.00  0.00    -0.031 C 
BRANCH  23  24
HETATM   24  C   UNL     1      39.825   8.825  -4.641  1.00  0.00     0.022 C 
HETATM   25  C   UNL     1      41.303   8.865  -4.273  1.00  0.00     0.009 C 
ENDBRANCH  23  24
ENDBRANCH  21  22
ENDBRANCH  20  21
ENDBRANCH  18  19
ENDBRANCH  17  18
ENDBRANCH  15  16
ENDBRANCH  14  15
ENDBRANCH  12  13
ENDBRANCH  11  12
ENDBRANCH   9  10
ENDBRANCH   8   9
ENDBRANCH   6   7
ENDBRANCH   5   6
ENDBRANCH   3   5
ENDBRANCH   1   3
TORSDOF 15
ENDMDL
MODEL 10
REMARK VINA RESULT:      -4.7      3.603      6.114
REMARK  15 active torsions:
REMARK  status: ('A' for Active; 'I' for Inactive)
REMARK    1  A    between atoms: O_1  and  C_23 
REMARK    2  A    between atoms: C_3  and  C_7 
REMARK    3  A    between atoms: C_3  and  C_8 
REMARK    4  A    between atoms: C_4  and  C_10 
REMARK    5  A    between atoms: C_4  and  C_11 
REMARK    6  A    between atoms: C_5  and  C_12 
REMARK    7  A    between atoms: C_5  and  C_13 
REMARK    8  A    between atoms: C_6  and  C_15 
REMARK    9  A    between atoms: C_6  and  C_16 
REMARK   10  A    between atoms: C_7  and  C_23 
REMARK   11  A    between atoms: C_9  and  C_17 
REMARK   12  A    between atoms: C_9  and  C_18 
REMARK   13  A    between atoms: C_14  and  C_19 
REMARK   14  A    between atoms: C_14  and  C_20 
REMARK   15  A    between atoms: C_21  and  C_22 
ROOT
HETATM    1  O   UNL     1      39.556   6.291 -20.978  1.00  0.00    -0.776 OA
HETATM    2  H   UNL     1      39.049   5.545 -21.327  1.00  0.00     0.167 HD
ENDROOT
BRANCH   1   3
HETATM    3  C   UNL     1      39.195   7.567 -21.231  1.00  0.00     0.139 C 
HETATM    4  O   UNL     1      39.547   8.109 -22.269  1.00  0.00    -0.650 OA
BRANCH   3   5
HETATM    5  C   UNL     1      38.357   8.317 -20.235  1.00  0.00     0.113 C 
BRANCH   5   6
HETATM    6  C   UNL     1      39.198   9.355 -19.483  1.00  0.00     0.037 C 
BRANCH   6   7
HETATM    7  C   UNL     1      40.227   8.677 -18.612  1.00  0.00    -0.030 C 
HETATM    8  C   UNL     1      40.036   8.165 -17.378  1.00  0.00    -0.027 C 
BRANCH   8   9
HETATM    9  C   UNL     1      38.752   8.148 -16.576  1.00  0.00     0.053 C 
BRANCH   9  10
HETATM   10  C   UNL     1      38.770   7.034 -15.559  1.00  0.00    -0.027 C 
HETATM   11  C   UNL     1      39.189   7.141 -14.285  1.00  0.00    -0.027 C 
BRANCH  11  12
HETATM   12  C   UNL     1      39.664   8.408 -13.624  1.00  0.00     0.053 C 
BRANCH  12  13
HETATM   13  C   UNL     1      41.095   8.705 -13.995  1.00  0.00    -0.027 C 
HETATM   14  C   UNL     1      41.772   9.840 -13.739  1.00  0.00    -0.027 C 
BRANCH  14  15
HETATM   15  C   UNL     1      41.220  11.071 -13.071  1.00  0.00     0.053 C 
BRANCH  15  16
HETATM   16  C   UNL     1      41.829  11.183 -11.691  1.00  0.00    -0.027 C 
HETATM   17  C   UNL     1      41.398  10.617 -10.546  1.00  0.00    -0.027 C 
BRANCH  17  18
HETATM   18  C   UNL     1      40.206   9.713 -10.371  1.00  0.00     0.053 C 
BRANCH  18  19
HETATM   19  C   UNL     1      40.563   8.517  -9.521  1.00  0.00    -0.027 C 
HETATM   20  C   UNL     1      40.494   8.414  -8.178  1.00  0.00    -0.027 C 
BRANCH  20  21
HETATM   21  C   UNL     1      39.988   9.456  -7.211  1.00  0.00     0.053 C 
BRANCH  21  22
HETATM   22  C   UNL     1      40.961   9.647  -6.070  1.00  0.00    -0.027 C 
HETATM   23  C   UNL     1      41.016   8.948  -4.920  1.00  0.00    -0.031 C 
BRANCH  23  24
HETATM   24  C   UNL     1      40.100   7.824  -4.508  1.00  0.00     0.022 C 
HETATM   25  C   UNL     1      38.766   8.326  -3.970  1.00  0.00     0.009 C 
ENDBRANCH  23  24
ENDBRANCH  21  22
ENDBRANCH  20  21
ENDBRANCH  18  19
ENDBRANCH  17  18
ENDBRANCH  15  16
ENDBRANCH  14  15
ENDBRANCH  12  13
ENDBRANCH  11  12
ENDBRANCH   9  10
ENDBRANCH   8   9
ENDBRANCH   6   7
ENDBRANCH   5   6
ENDBRANCH   3   5
ENDBRANCH   1   3
TORSDOF 15
ENDMDL
MODEL 11
REMARK VINA RESULT:      -4.7     24.749     27.079
REMARK  15 active torsions:
REMARK  status: ('A' for Active; 'I' for Inactive)
REMARK    1  A    between atoms: O_1  and  C_23 
REMARK    2  A    between atoms: C_3  and  C_7 
REMARK    3  A    between atoms: C_3  and  C_8 
REMARK    4  A    between atoms: C_4  and  C_10 
REMARK    5  A    between atoms: C_4  and  C_11 
REMARK    6  A    between atoms: C_5  and  C_12 
REMARK    7  A    between atoms: C_5  and  C_13 
REMARK    8  A    between atoms: C_6  and  C_15 
REMARK    9  A    between atoms: C_6  and  C_16 
REMARK   10  A    between atoms: C_7  and  C_23 
REMARK   11  A    between atoms: C_9  and  C_17 
REMARK   12  A    between atoms: C_9  and  C_18 
REMARK   13  A    between atoms: C_14  and  C_19 
REMARK   14  A    between atoms: C_14  and  C_20 
REMARK   15  A    between atoms: C_21  and  C_22 
ROOT
HETATM    1  O   UNL     1      29.892 -21.060 -13.883  1.00  0.00    -0.776 OA
HETATM    2  H   UNL     1      29.726 -20.677 -13.011  1.00  0.00     0.167 HD
ENDROOT
BRANCH   1   3
HETATM    3  C   UNL     1      30.558 -20.376 -14.838  1.00  0.00     0.139 C 
HETATM    4  O   UNL     1      31.399 -20.942 -15.522  1.00  0.00    -0.650 OA
BRANCH   3   5
HETATM    5  C   UNL     1      30.260 -18.921 -15.058  1.00  0.00     0.113 C 
BRANCH   5   6
HETATM    6  C   UNL     1      31.180 -18.039 -14.207  1.00  0.00     0.037 C 
BRANCH   6   7
HETATM    7  C   UNL     1      30.374 -17.037 -13.415  1.00  0.00    -0.030 C 
HETATM    8  C   UNL     1      29.808 -15.902 -13.878  1.00  0.00    -0.027 C 
BRANCH   8   9
HETATM    9  C   UNL     1      29.845 -15.365 -15.293  1.00  0.00     0.053 C 
BRANCH   9  10
HETATM   10  C   UNL     1      28.548 -14.677 -15.639  1.00  0.00    -0.027 C 
HETATM   11  C   UNL     1      28.141 -13.485 -15.169  1.00  0.00    -0.027 C 
BRANCH  11  12
HETATM   12  C   UNL     1      28.934 -12.589 -14.253  1.00  0.00     0.053 C 
BRANCH  12  13
HETATM   13  C   UNL     1      29.774 -11.618 -15.045  1.00  0.00    -0.027 C 
HETATM   14  C   UNL     1      31.115 -11.621 -15.155  1.00  0.00    -0.027 C 
BRANCH  14  15
HETATM   15  C   UNL     1      32.060 -12.570 -14.468  1.00  0.00     0.053 C 
BRANCH  15  16
HETATM   16  C   UNL     1      32.726 -11.841 -13.322  1.00  0.00    -0.027 C 
HETATM   17  C   UNL     1      32.343 -11.802 -12.030  1.00  0.00    -0.027 C 
BRANCH  17  18
HETATM   18  C   UNL     1      31.159 -12.498 -11.411  1.00  0.00     0.053 C 
BRANCH  18  19
HETATM   19  C   UNL     1      30.256 -11.503 -10.722  1.00  0.00    -0.027 C 
HETATM   20  C   UNL     1      28.945 -11.644 -10.437  1.00  0.00    -0.027 C 
BRANCH  20  21
HETATM   21  C   UNL     1      28.084 -12.856 -10.693  1.00  0.00     0.053 C 
BRANCH  21  22
HETATM   22  C   UNL     1      27.963 -13.703  -9.447  1.00  0.00    -0.027 C 
HETATM   23  C   UNL     1      28.552 -14.891  -9.209  1.00  0.00    -0.031 C 
BRANCH  23  24
HETATM   24  C   UNL     1      29.453 -15.650 -10.148  1.00  0.00     0.022 C 
HETATM   25  C   UNL     1      30.885 -15.739  -9.637  1.00  0.00     0.009 C 
ENDBRANCH  23  24
ENDBRANCH  21  22
ENDBRANCH  20  21
ENDBRANCH  18  19
ENDBRANCH  17  18
ENDBRANCH  15  16
ENDBRANCH  14  15
ENDBRANCH  12  13
ENDBRANCH  11  12
ENDBRANCH   9  10
ENDBRANCH   8   9
ENDBRANCH   6   7
ENDBRANCH   5   6
ENDBRANCH   3   5
ENDBRANCH   1   3
TORSDOF 15
ENDMDL
MODEL 12
REMARK VINA RESULT:      -4.7     25.051     27.551
REMARK  15 active torsions:
REMARK  status: ('A' for Active; 'I' for Inactive)
REMARK    1  A    between atoms: O_1  and  C_23 
REMARK    2  A    between atoms: C_3  and  C_7 
REMARK    3  A    between atoms: C_3  and  C_8 
REMARK    4  A    between atoms: C_4  and  C_10 
REMARK    5  A    between atoms: C_4  and  C_11 
REMARK    6  A    between atoms: C_5  and  C_12 
REMARK    7  A    between atoms: C_5  and  C_13 
REMARK    8  A    between atoms: C_6  and  C_15 
REMARK    9  A    between atoms: C_6  and  C_16 
REMARK   10  A    between atoms: C_7  and  C_23 
REMARK   11  A    between atoms: C_9  and  C_17 
REMARK   12  A    between atoms: C_9  and  C_18 
REMARK   13  A    between atoms: C_14  and  C_19 
REMARK   14  A    between atoms: C_14  and  C_20 
REMARK   15  A    between atoms: C_21  and  C_22 
ROOT
HETATM    1  O   UNL     1      29.875 -21.127 -13.947  1.00  0.00    -0.776 OA
HETATM    2  H   UNL     1      30.077 -22.018 -13.631  1.00  0.00     0.167 HD
ENDROOT
BRANCH   1   3
HETATM    3  C   UNL     1      30.782 -20.400 -14.633  1.00  0.00     0.139 C 
HETATM    4  O   UNL     1      31.306 -20.864 -15.637  1.00  0.00    -0.650 OA
BRANCH   3   5
HETATM    5  C   UNL     1      31.144 -19.020 -14.163  1.00  0.00     0.113 C 
BRANCH   5   6
HETATM    6  C   UNL     1      30.025 -18.425 -13.301  1.00  0.00     0.037 C 
BRANCH   6   7
HETATM    7  C   UNL     1      30.488 -18.248 -11.875  1.00  0.00    -0.030 C 
HETATM    8  C   UNL     1      30.780 -17.085 -11.254  1.00  0.00    -0.027 C 
BRANCH   8   9
HETATM    9  C   UNL     1      30.713 -15.688 -11.835  1.00  0.00     0.053 C 
BRANCH   9  10
HETATM   10  C   UNL     1      32.093 -15.179 -12.169  1.00  0.00    -0.027 C 
HETATM   11  C   UNL     1      32.381 -14.228 -13.075  1.00  0.00    -0.027 C 
BRANCH  11  12
HETATM   12  C   UNL     1      31.371 -13.455 -13.882  1.00  0.00     0.053 C 
BRANCH  12  13
HETATM   13  C   UNL     1      31.883 -12.073 -14.204  1.00  0.00    -0.027 C 
HETATM   14  C   UNL     1      32.513 -11.692 -15.332  1.00  0.00    -0.027 C 
BRANCH  14  15
HETATM   15  C   UNL     1      32.880 -12.585 -16.487  1.00  0.00     0.053 C 
BRANCH  15  16
HETATM   16  C   UNL     1      32.482 -11.895 -17.773  1.00  0.00    -0.027 C 
HETATM   17  C   UNL     1      31.347 -12.055 -18.483  1.00  0.00    -0.027 C 
BRANCH  17  18
HETATM   18  C   UNL     1      30.185 -12.955 -18.150  1.00  0.00     0.053 C 
BRANCH  18  19
HETATM   19  C   UNL     1      29.306 -12.322 -17.096  1.00  0.00    -0.027 C 
HETATM   20  C   UNL     1      28.342 -12.919 -16.365  1.00  0.00    -0.027 C 
BRANCH  20  21
HETATM   21  C   UNL     1      27.952 -14.376 -16.390  1.00  0.00     0.053 C 
BRANCH  21  22
HETATM   22  C   UNL     1      28.904 -15.202 -15.556  1.00  0.00    -0.027 C 
HETATM   23  C   UNL     1      29.827 -16.077 -16.000  1.00  0.00    -0.031 C 
BRANCH  23  24
HETATM   24  C   UNL     1      30.101 -16.441 -17.436  1.00  0.00     0.022 C 
HETATM   25  C   UNL     1      30.230 -17.945 -17.642  1.00  0.00     0.009 C 
ENDBRANCH  23  24
ENDBRANCH  21  22
ENDBRANCH  20  21
ENDBRANCH  18  19
ENDBRANCH  17  18
ENDBRANCH  15  16
ENDBRANCH  14  15
ENDBRANCH  12  13
ENDBRANCH  11  12
ENDBRANCH   9  10
ENDBRANCH   8   9
ENDBRANCH   6   7
ENDBRANCH   5   6
ENDBRANCH   3   5
ENDBRANCH   1   3
TORSDOF 15
ENDMDL
MODEL 13
REMARK VINA RESULT:      -4.7     25.865     28.753
REMARK  15 active torsions:
REMARK  status: ('A' for Active; 'I' for Inactive)
REMARK    1  A    between atoms: O_1  and  C_23 
REMARK    2  A    between atoms: C_3  and  C_7 
REMARK    3  A    between atoms: C_3  and  C_8 
REMARK    4  A    between atoms: C_4  and  C_10 
REMARK    5  A    between atoms: C_4  and  C_11 
REMARK    6  A    between atoms: C_5  and  C_12 
REMARK    7  A    between atoms: C_5  and  C_13 
REMARK    8  A    between atoms: C_6  and  C_15 
REMARK    9  A    between atoms: C_6  and  C_16 
REMARK   10  A    between atoms: C_7  and  C_23 
REMARK   11  A    between atoms: C_9  and  C_17 
REMARK   12  A    between atoms: C_9  and  C_18 
REMARK   13  A    between atoms: C_14  and  C_19 
REMARK   14  A    between atoms: C_14  and  C_20 
REMARK   15  A    between atoms: C_21  and  C_22 
ROOT
HETATM    1  O   UNL     1      32.704 -20.243  -9.389  1.00  0.00    -0.776 OA
HETATM    2  H   UNL     1      33.273 -20.899  -8.964  1.00  0.00     0.167 HD
ENDROOT
BRANCH   1   3
HETATM    3  C   UNL     1      31.407 -20.505  -9.660  1.00  0.00     0.139 C 
HETATM    4  O   UNL     1      31.086 -20.939 -10.757  1.00  0.00    -0.650 OA
BRANCH   3   5
HETATM    5  C   UNL     1      30.362 -20.266  -8.608  1.00  0.00     0.113 C 
BRANCH   5   6
HETATM    6  C   UNL     1      31.004 -20.105  -7.225  1.00  0.00     0.037 C 
BRANCH   6   7
HETATM    7  C   UNL     1      30.391 -18.940  -6.486  1.00  0.00    -0.030 C 
HETATM    8  C   UNL     1      30.230 -17.681  -6.946  1.00  0.00    -0.027 C 
BRANCH   8   9
HETATM    9  C   UNL     1      30.621 -17.138  -8.303  1.00  0.00     0.053 C 
BRANCH   9  10
HETATM   10  C   UNL     1      31.545 -15.955  -8.162  1.00  0.00    -0.027 C 
HETATM   11  C   UNL     1      31.176 -14.662  -8.199  1.00  0.00    -0.027 C 
BRANCH  11  12
HETATM   12  C   UNL     1      29.762 -14.159  -8.330  1.00  0.00     0.053 C 
BRANCH  12  13
HETATM   13  C   UNL     1      29.733 -12.790  -8.961  1.00  0.00    -0.027 C 
HETATM   14  C   UNL     1      28.896 -12.368  -9.928  1.00  0.00    -0.027 C 
BRANCH  14  15
HETATM   15  C   UNL     1      27.845 -13.199 -10.615  1.00  0.00     0.053 C 
BRANCH  15  16
HETATM   16  C   UNL     1      28.314 -13.502 -12.020  1.00  0.00    -0.027 C 
HETATM   17  C   UNL     1      29.012 -14.574 -12.448  1.00  0.00    -0.027 C 
BRANCH  17  18
HETATM   18  C   UNL     1      29.478 -15.744 -11.622  1.00  0.00     0.053 C 
BRANCH  18  19
HETATM   19  C   UNL     1      30.599 -16.477 -12.322  1.00  0.00    -0.027 C 
HETATM   20  C   UNL     1      31.907 -16.148 -12.345  1.00  0.00    -0.027 C 
BRANCH  20  21
HETATM   21  C   UNL     1      32.568 -14.996 -11.629  1.00  0.00     0.053 C 
BRANCH  21  22
HETATM   22  C   UNL     1      32.478 -13.730 -12.450  1.00  0.00    -0.027 C 
HETATM   23  C   UNL     1      32.507 -12.462 -11.997  1.00  0.00    -0.031 C 
BRANCH  23  24
HETATM   24  C   UNL     1      32.616 -12.024 -10.560  1.00  0.00     0.022 C 
HETATM   25  C   UNL     1      32.743 -10.513 -10.418  1.00  0.00     0.009 C 
ENDBRANCH  23  24
ENDBRANCH  21  22
ENDBRANCH  20  21
ENDBRANCH  18  19
ENDBRANCH  17  18
ENDBRANCH  15  16
ENDBRANCH  14  15
ENDBRANCH  12  13
ENDBRANCH  11  12
ENDBRANCH   9  10
ENDBRANCH   8   9
ENDBRANCH   6   7
ENDBRANCH   5   6
ENDBRANCH   3   5
ENDBRANCH   1   3
TORSDOF 15
ENDMDL
MODEL 14
REMARK VINA RESULT:      -4.7      2.714      5.531
REMARK  15 active torsions:
REMARK  status: ('A' for Active; 'I' for Inactive)
REMARK    1  A    between atoms: O_1  and  C_23 
REMARK    2  A    between atoms: C_3  and  C_7 
REMARK    3  A    between atoms: C_3  and  C_8 
REMARK    4  A    between atoms: C_4  and  C_10 
REMARK    5  A    between atoms: C_4  and  C_11 
REMARK    6  A    between atoms: C_5  and  C_12 
REMARK    7  A    between atoms: C_5  and  C_13 
REMARK    8  A    between atoms: C_6  and  C_15 
REMARK    9  A    between atoms: C_6  and  C_16 
REMARK   10  A    between atoms: C_7  and  C_23 
REMARK   11  A    between atoms: C_9  and  C_17 
REMARK   12  A    between atoms: C_9  and  C_18 
REMARK   13  A    between atoms: C_14  and  C_19 
REMARK   14  A    between atoms: C_14  and  C_20 
REMARK   15  A    between atoms: C_21  and  C_22 
ROOT
HETATM    1  O   UNL     1      42.484  11.131 -17.546  1.00  0.00    -0.776 OA
HETATM    2  H   UNL     1      43.225  11.752 -17.506  1.00  0.00     0.167 HD
ENDROOT
BRANCH   1   3
HETATM    3  C   UNL     1      41.999  10.688 -18.725  1.00  0.00     0.139 C 
HETATM    4  O   UNL     1      41.956  11.438 -19.690  1.00  0.00    -0.650 OA
BRANCH   3   5
HETATM    5  C   UNL     1      41.514   9.272 -18.848  1.00  0.00     0.113 C 
BRANCH   5   6
HETATM    6  C   UNL     1      40.137   9.106 -18.196  1.00  0.00     0.037 C 
BRANCH   6   7
HETATM    7  C   UNL     1      39.815   7.644 -17.997  1.00  0.00    -0.030 C 
HETATM    8  C   UNL     1      39.270   7.074 -16.902  1.00  0.00    -0.027 C 
BRANCH   8   9
HETATM    9  C   UNL     1      38.853   7.759 -15.617  1.00  0.00     0.053 C 
BRANCH   9  10
HETATM   10  C   UNL     1      39.816   7.438 -14.502  1.00  0.00    -0.027 C 
HETATM   11  C   UNL     1      40.827   8.222 -14.087  1.00  0.00    -0.027 C 
BRANCH  11  12
HETATM   12  C   UNL     1      41.148   9.592 -14.625  1.00  0.00     0.053 C 
BRANCH  12  13
HETATM   13  C   UNL     1      40.117  10.599 -14.180  1.00  0.00    -0.027 C 
HETATM   14  C   UNL     1      40.017  11.162 -12.961  1.00  0.00    -0.027 C 
BRANCH  14  15
HETATM   15  C   UNL     1      40.890  10.862 -11.772  1.00  0.00     0.053 C 
BRANCH  15  16
HETATM   16  C   UNL     1      40.905  12.074 -10.868  1.00  0.00    -0.027 C 
HETATM   17  C   UNL     1      40.333  12.211  -9.654  1.00  0.00    -0.027 C 
BRANCH  17  18
HETATM   18  C   UNL     1      39.552  11.170  -8.896  1.00  0.00     0.053 C 
BRANCH  18  19
HETATM   19  C   UNL     1      40.444  10.442  -7.917  1.00  0.00    -0.027 C 
HETATM   20  C   UNL     1      40.975   9.210  -8.050  1.00  0.00    -0.027 C 
BRANCH  20  21
HETATM   21  C   UNL     1      40.847   8.288  -9.237  1.00  0.00     0.053 C 
BRANCH  21  22
HETATM   22  C   UNL     1      39.617   7.419  -9.113  1.00  0.00    -0.027 C 
HETATM   23  C   UNL     1      38.569   7.364  -9.959  1.00  0.00    -0.031 C 
BRANCH  23  24
HETATM   24  C   UNL     1      38.385   8.178 -11.213  1.00  0.00     0.022 C 
HETATM   25  C   UNL     1      37.349   9.282 -11.045  1.00  0.00     0.009 C 
ENDBRANCH  23  24
ENDBRANCH  21  22
ENDBRANCH  20  21
ENDBRANCH  18  19
ENDBRANCH  17  18
ENDBRANCH  15  16
ENDBRANCH  14  15
ENDBRANCH  12  13
ENDBRANCH  11  12
ENDBRANCH   9  10
ENDBRANCH   8   9
ENDBRANCH   6   7
ENDBRANCH   5   6
ENDBRANCH   3   5
ENDBRANCH   1   3
TORSDOF 15
ENDMDL
MODEL 15
REMARK VINA RESULT:      -4.7     25.899     28.407
REMARK  15 active torsions:
REMARK  status: ('A' for Active; 'I' for Inactive)
REMARK    1  A    between atoms: O_1  and  C_23 
REMARK    2  A    between atoms: C_3  and  C_7 
REMARK    3  A    between atoms: C_3  and  C_8 
REMARK    4  A    between atoms: C_4  and  C_10 
REMARK    5  A    between atoms: C_4  and  C_11 
REMARK    6  A    between atoms: C_5  and  C_12 
REMARK    7  A    between atoms: C_5  and  C_13 
REMARK    8  A    between atoms: C_6  and  C_15 
REMARK    9  A    between atoms: C_6  and  C_16 
REMARK   10  A    between atoms: C_7  and  C_23 
REMARK   11  A    between atoms: C_9  and  C_17 
REMARK   12  A    between atoms: C_9  and  C_18 
REMARK   13  A    between atoms: C_14  and  C_19 
REMARK   14  A    between atoms: C_14  and  C_20 
REMARK   15  A    between atoms: C_21  and  C_22 
ROOT
HETATM    1  O   UNL     1      32.266 -20.606  -8.728  1.00  0.00    -0.776 OA
HETATM    2  H   UNL     1      32.498 -20.342  -9.629  1.00  0.00     0.167 HD
ENDROOT
BRANCH   1   3
HETATM    3  C   UNL     1      31.032 -20.386  -8.226  1.00  0.00     0.139 C 
HETATM    4  O   UNL     1      30.758 -20.750  -7.092  1.00  0.00    -0.650 OA
BRANCH   3   5
HETATM    5  C   UNL     1      29.998 -19.690  -9.065  1.00  0.00     0.113 C 
BRANCH   5   6
HETATM    6  C   UNL     1      29.926 -18.198  -8.718  1.00  0.00     0.037 C 
BRANCH   6   7
HETATM    7  C   UNL     1      31.140 -17.470  -9.243  1.00  0.00    -0.030 C 
HETATM    8  C   UNL     1      31.280 -16.891 -10.455  1.00  0.00    -0.027 C 
BRANCH   8   9
HETATM    9  C   UNL     1      30.259 -16.834 -11.571  1.00  0.00     0.053 C 
BRANCH   9  10
HETATM   10  C   UNL     1      30.708 -17.657 -12.752  1.00  0.00    -0.027 C 
HETATM   11  C   UNL     1      31.422 -17.206 -13.798  1.00  0.00    -0.027 C 
BRANCH  11  12
HETATM   12  C   UNL     1      31.955 -15.805 -13.954  1.00  0.00     0.053 C 
BRANCH  12  13
HETATM   13  C   UNL     1      33.321 -15.676 -13.328  1.00  0.00    -0.027 C 
HETATM   14  C   UNL     1      33.675 -14.833 -12.340  1.00  0.00    -0.027 C 
BRANCH  14  15
HETATM   15  C   UNL     1      32.786 -13.807 -11.689  1.00  0.00     0.053 C 
BRANCH  15  16
HETATM   16  C   UNL     1      33.224 -13.634 -10.251  1.00  0.00    -0.027 C 
HETATM   17  C   UNL     1      32.446 -13.541  -9.153  1.00  0.00    -0.027 C 
BRANCH  17  18
HETATM   18  C   UNL     1      30.942 -13.607  -9.096  1.00  0.00     0.053 C 
BRANCH  18  19
HETATM   19  C   UNL     1      30.345 -12.221  -9.173  1.00  0.00    -0.027 C 
HETATM   20  C   UNL     1      29.442 -11.764 -10.065  1.00  0.00    -0.027 C 
BRANCH  20  21
HETATM   21  C   UNL     1      28.773 -12.550 -11.166  1.00  0.00     0.053 C 
BRANCH  21  22
HETATM   22  C   UNL     1      29.583 -12.487 -12.440  1.00  0.00    -0.027 C 
HETATM   23  C   UNL     1      29.378 -13.189 -13.571  1.00  0.00    -0.031 C 
BRANCH  23  24
HETATM   24  C   UNL     1      28.299 -14.213 -13.809  1.00  0.00     0.022 C 
HETATM   25  C   UNL     1      28.568 -15.069 -15.040  1.00  0.00     0.009 C 
ENDBRANCH  23  24
ENDBRANCH  21  22
ENDBRANCH  20  21
ENDBRANCH  18  19
ENDBRANCH  17  18
ENDBRANCH  15  16
ENDBRANCH  14  15
ENDBRANCH  12  13
ENDBRANCH  11  12
ENDBRANCH   9  10
ENDBRANCH   8   9
ENDBRANCH   6   7
ENDBRANCH   5   6
ENDBRANCH   3   5
ENDBRANCH   1   3
TORSDOF 15
ENDMDL
MODEL 16
REMARK VINA RESULT:      -4.7     24.642     26.822
REMARK  15 active torsions:
REMARK  status: ('A' for Active; 'I' for Inactive)
REMARK    1  A    between atoms: O_1  and  C_23 
REMARK    2  A    between atoms: C_3  and  C_7 
REMARK    3  A    between atoms: C_3  and  C_8 
REMARK    4  A    between atoms: C_4  and  C_10 
REMARK    5  A    between atoms: C_4  and  C_11 
REMARK    6  A    between atoms: C_5  and  C_12 
REMARK    7  A    between atoms: C_5  and  C_13 
REMARK    8  A    between atoms: C_6  and  C_15 
REMARK    9  A    between atoms: C_6  and  C_16 
REMARK   10  A    between atoms: C_7  and  C_23 
REMARK   11  A    between atoms: C_9  and  C_17 
REMARK   12  A    between atoms: C_9  and  C_18 
REMARK   13  A    between atoms: C_14  and  C_19 
REMARK   14  A    between atoms: C_14  and  C_20 
REMARK   15  A    between atoms: C_21  and  C_22 
ROOT
HETATM    1  O   UNL     1      32.505 -20.213 -14.187  1.00  0.00    -0.776 OA
HETATM    2  H   UNL     1      33.138 -20.940 -14.270  1.00  0.00     0.167 HD
ENDROOT
BRANCH   1   3
HETATM    3  C   UNL     1      31.406 -20.143 -14.967  1.00  0.00     0.139 C 
HETATM    4  O   UNL     1      31.115 -21.078 -15.700  1.00  0.00    -0.650 OA
BRANCH   3   5
HETATM    5  C   UNL     1      30.540 -18.916 -14.929  1.00  0.00     0.113 C 
BRANCH   5   6
HETATM    6  C   UNL     1      30.362 -18.328 -16.334  1.00  0.00     0.037 C 
BRANCH   6   7
HETATM    7  C   UNL     1      30.316 -16.820 -16.278  1.00  0.00    -0.030 C 
HETATM    8  C   UNL     1      31.014 -15.957 -17.047  1.00  0.00    -0.027 C 
BRANCH   8   9
HETATM    9  C   UNL     1      32.004 -16.292 -18.142  1.00  0.00     0.053 C 
BRANCH   9  10
HETATM   10  C   UNL     1      31.289 -16.654 -19.419  1.00  0.00    -0.027 C 
HETATM   11  C   UNL     1      31.532 -16.126 -20.632  1.00  0.00    -0.027 C 
BRANCH  11  12
HETATM   12  C   UNL     1      32.605 -15.116 -20.947  1.00  0.00     0.053 C 
BRANCH  12  13
HETATM   13  C   UNL     1      32.076 -14.033 -21.853  1.00  0.00    -0.027 C 
HETATM   14  C   UNL     1      31.690 -12.796 -21.486  1.00  0.00    -0.027 C 
BRANCH  14  15
HETATM   15  C   UNL     1      31.663 -12.257 -20.080  1.00  0.00     0.053 C 
BRANCH  15  16
HETATM   16  C   UNL     1      30.298 -11.659 -19.821  1.00  0.00    -0.027 C 
HETATM   17  C   UNL     1      29.200 -12.277 -19.341  1.00  0.00    -0.027 C 
BRANCH  17  18
HETATM   18  C   UNL     1      29.077 -13.720 -18.926  1.00  0.00     0.053 C 
BRANCH  18  19
HETATM   19  C   UNL     1      27.736 -13.976 -18.279  1.00  0.00    -0.027 C 
HETATM   20  C   UNL     1      27.447 -13.974 -16.961  1.00  0.00    -0.027 C 
BRANCH  20  21
HETATM   21  C   UNL     1      28.387 -13.660 -15.824  1.00  0.00     0.053 C 
BRANCH  21  22
HETATM   22  C   UNL     1      28.489 -12.169 -15.606  1.00  0.00    -0.027 C 
HETATM   23  C   UNL     1      29.591 -11.465 -15.283  1.00  0.00    -0.031 C 
BRANCH  23  24
HETATM   24  C   UNL     1      30.973 -12.019 -15.049  1.00  0.00     0.022 C 
HETATM   25  C   UNL     1      31.730 -12.265 -16.347  1.00  0.00     0.009 C 
ENDBRANCH  23  24
ENDBRANCH  21  22
ENDBRANCH  20  21
ENDBRANCH  18  19
ENDBRANCH  17  18
ENDBRANCH  15  16
ENDBRANCH  14  15
ENDBRANCH  12  13
ENDBRANCH  11  12
ENDBRANCH   9  10
ENDBRANCH   8   9
ENDBRANCH   6   7
ENDBRANCH   5   6
ENDBRANCH   3   5
ENDBRANCH   1   3
TORSDOF 15
ENDMDL
MODEL 17
REMARK VINA RESULT:      -4.6     25.699     28.276
REMARK  15 active torsions:
REMARK  status: ('A' for Active; 'I' for Inactive)
REMARK    1  A    between atoms: O_1  and  C_23 
REMARK    2  A    between atoms: C_3  and  C_7 
REMARK    3  A    between atoms: C_3  and  C_8 
REMARK    4  A    between atoms: C_4  and  C_10 
REMARK    5  A    between atoms: C_4  and  C_11 
REMARK    6  A    between atoms: C_5  and  C_12 
REMARK    7  A    between atoms: C_5  and  C_13 
REMARK    8  A    between atoms: C_6  and  C_15 
REMARK    9  A    between atoms: C_6  and  C_16 
REMARK   10  A    between atoms: C_7  and  C_23 
REMARK   11  A    between atoms: C_9  and  C_17 
REMARK   12  A    between atoms: C_9  and  C_18 
REMARK   13  A    between atoms: C_14  and  C_19 
REMARK   14  A    between atoms: C_14  and  C_20 
REMARK   15  A    between atoms: C_21  and  C_22 
ROOT
HETATM    1  O   UNL     1      29.240 -17.918  -9.095  1.00  0.00    -0.776 OA
HETATM    2  H   UNL     1      29.516 -16.992  -9.139  1.00  0.00     0.167 HD
ENDROOT
BRANCH   1   3
HETATM    3  C   UNL     1      29.886 -18.808  -8.311  1.00  0.00     0.139 C 
HETATM    4  O   UNL     1      30.173 -18.515  -7.159  1.00  0.00    -0.650 OA
BRANCH   3   5
HETATM    5  C   UNL     1      30.248 -20.159  -8.859  1.00  0.00     0.113 C 
BRANCH   5   6
HETATM    6  C   UNL     1      31.442 -20.061  -9.815  1.00  0.00     0.037 C 
BRANCH   6   7
HETATM    7  C   UNL     1      31.065 -20.557 -11.191  1.00  0.00    -0.030 C 
HETATM    8  C   UNL     1      30.645 -19.813 -12.236  1.00  0.00    -0.027 C 
BRANCH   8   9
HETATM    9  C   UNL     1      30.452 -18.312 -12.279  1.00  0.00     0.053 C 
BRANCH   9  10
HETATM   10  C   UNL     1      31.068 -17.728 -13.526  1.00  0.00    -0.027 C 
HETATM   11  C   UNL     1      30.668 -16.603 -14.146  1.00  0.00    -0.027 C 
BRANCH  11  12
HETATM   12  C   UNL     1      29.567 -15.689 -13.676  1.00  0.00     0.053 C 
BRANCH  12  13
HETATM   13  C   UNL     1      28.861 -15.050 -14.846  1.00  0.00    -0.027 C 
HETATM   14  C   UNL     1      28.717 -13.731 -15.073  1.00  0.00    -0.027 C 
BRANCH  14  15
HETATM   15  C   UNL     1      29.191 -12.619 -14.176  1.00  0.00     0.053 C 
BRANCH  15  16
HETATM   16  C   UNL     1      30.523 -12.120 -14.691  1.00  0.00    -0.027 C 
HETATM   17  C   UNL     1      31.682 -12.000 -14.013  1.00  0.00    -0.027 C 
BRANCH  17  18
HETATM   18  C   UNL     1      31.933 -12.357 -12.571  1.00  0.00     0.053 C 
BRANCH  18  19
HETATM   19  C   UNL     1      32.491 -13.757 -12.458  1.00  0.00    -0.027 C 
HETATM   20  C   UNL     1      32.377 -14.604 -11.414  1.00  0.00    -0.027 C 
BRANCH  20  21
HETATM   21  C   UNL     1      31.616 -14.371 -10.132  1.00  0.00     0.053 C 
BRANCH  21  22
HETATM   22  C   UNL     1      30.161 -14.744 -10.296  1.00  0.00    -0.027 C 
HETATM   23  C   UNL     1      29.089 -13.958 -10.077  1.00  0.00    -0.031 C 
BRANCH  23  24
HETATM   24  C   UNL     1      29.106 -12.529  -9.601  1.00  0.00     0.022 C 
HETATM   25  C   UNL     1      28.786 -11.539 -10.714  1.00  0.00     0.009 C 
ENDBRANCH  23  24
ENDBRANCH  21  22
ENDBRANCH  20  21
ENDBRANCH  18  19
ENDBRANCH  17  18
ENDBRANCH  15  16
ENDBRANCH  14  15
ENDBRANCH  12  13
ENDBRANCH  11  12
ENDBRANCH   9  10
ENDBRANCH   8   9
ENDBRANCH   6   7
ENDBRANCH   5   6
ENDBRANCH   3   5
ENDBRANCH   1   3
TORSDOF 15
ENDMDL
MODEL 18
REMARK VINA RESULT:      -4.6     24.490     27.015
REMARK  15 active torsions:
REMARK  status: ('A' for Active; 'I' for Inactive)
REMARK    1  A    between atoms: O_1  and  C_23 
REMARK    2  A    between atoms: C_3  and  C_7 
REMARK    3  A    between atoms: C_3  and  C_8 
REMARK    4  A    between atoms: C_4  and  C_10 
REMARK    5  A    between atoms: C_4  and  C_11 
REMARK    6  A    between atoms: C_5  and  C_12 
REMARK    7  A    between atoms: C_5  and  C_13 
REMARK    8  A    between atoms: C_6  and  C_15 
REMARK    9  A    between atoms: C_6  and  C_16 
REMARK   10  A    between atoms: C_7  and  C_23 
REMARK   11  A    between atoms: C_9  and  C_17 
REMARK   12  A    between atoms: C_9  and  C_18 
REMARK   13  A    between atoms: C_14  and  C_19 
REMARK   14  A    between atoms: C_14  and  C_20 
REMARK   15  A    between atoms: C_21  and  C_22 
ROOT
HETATM    1  O   UNL     1      29.890 -21.003 -13.896  1.00  0.00    -0.776 OA
HETATM    2  H   UNL     1      28.954 -21.230 -13.979  1.00  0.00     0.167 HD
ENDROOT
BRANCH   1   3
HETATM    3  C   UNL     1      30.544 -20.344 -14.876  1.00  0.00     0.139 C 
HETATM    4  O   UNL     1      31.290 -20.951 -15.631  1.00  0.00    -0.650 OA
BRANCH   3   5
HETATM    5  C   UNL     1      30.349 -18.863 -15.038  1.00  0.00     0.113 C 
BRANCH   5   6
HETATM    6  C   UNL     1      31.112 -18.089 -13.956  1.00  0.00     0.037 C 
BRANCH   6   7
HETATM    7  C   UNL     1      30.162 -17.264 -13.122  1.00  0.00    -0.030 C 
HETATM    8  C   UNL     1      30.250 -15.942 -12.860  1.00  0.00    -0.027 C 
BRANCH   8   9
HETATM    9  C   UNL     1      31.315 -14.977 -13.335  1.00  0.00     0.053 C 
BRANCH   9  10
HETATM   10  C   UNL     1      31.524 -13.872 -12.330  1.00  0.00    -0.027 C 
HETATM   11  C   UNL     1      32.359 -12.828 -12.475  1.00  0.00    -0.027 C 
BRANCH  11  12
HETATM   12  C   UNL     1      33.197 -12.540 -13.694  1.00  0.00     0.053 C 
BRANCH  12  13
HETATM   13  C   UNL     1      32.832 -11.205 -14.294  1.00  0.00    -0.027 C 
HETATM   14  C   UNL     1      31.826 -10.958 -15.153  1.00  0.00    -0.027 C 
BRANCH  14  15
HETATM   15  C   UNL     1      30.884 -11.980 -15.732  1.00  0.00     0.053 C 
BRANCH  15  16
HETATM   16  C   UNL     1      29.637 -12.024 -14.876  1.00  0.00    -0.027 C 
HETATM   17  C   UNL     1      28.496 -12.704 -15.107  1.00  0.00    -0.027 C 
BRANCH  17  18
HETATM   18  C   UNL     1      28.196 -13.606 -16.276  1.00  0.00     0.053 C 
BRANCH  18  19
HETATM   19  C   UNL     1      28.970 -14.899 -16.165  1.00  0.00    -0.027 C 
HETATM   20  C   UNL     1      29.583 -15.577 -17.156  1.00  0.00    -0.027 C 
BRANCH  20  21
HETATM   21  C   UNL     1      29.686 -15.173 -18.606  1.00  0.00     0.053 C 
BRANCH  21  22
HETATM   22  C   UNL     1      30.771 -14.140 -18.801  1.00  0.00    -0.027 C 
HETATM   23  C   UNL     1      30.613 -12.846 -19.142  1.00  0.00    -0.031 C 
BRANCH  23  24
HETATM   24  C   UNL     1      29.310 -12.145 -19.425  1.00  0.00     0.022 C 
HETATM   25  C   UNL     1      29.002 -12.065 -20.914  1.00  0.00     0.009 C 
ENDBRANCH  23  24
ENDBRANCH  21  22
ENDBRANCH  20  21
ENDBRANCH  18  19
ENDBRANCH  17  18
ENDBRANCH  15  16
ENDBRANCH  14  15
ENDBRANCH  12  13
ENDBRANCH  11  12
ENDBRANCH   9  10
ENDBRANCH   8   9
ENDBRANCH   6   7
ENDBRANCH   5   6
ENDBRANCH   3   5
ENDBRANCH   1   3
TORSDOF 15
ENDMDL
MODEL 19
REMARK VINA RESULT:      -4.6      3.544      5.624
REMARK  15 active torsions:
REMARK  status: ('A' for Active; 'I' for Inactive)
REMARK    1  A    between atoms: O_1  and  C_23 
REMARK    2  A    between atoms: C_3  and  C_7 
REMARK    3  A    between atoms: C_3  and  C_8 
REMARK    4  A    between atoms: C_4  and  C_10 
REMARK    5  A    between atoms: C_4  and  C_11 
REMARK    6  A    between atoms: C_5  and  C_12 
REMARK    7  A    between atoms: C_5  and  C_13 
REMARK    8  A    between atoms: C_6  and  C_15 
REMARK    9  A    between atoms: C_6  and  C_16 
REMARK   10  A    between atoms: C_7  and  C_23 
REMARK   11  A    between atoms: C_9  and  C_17 
REMARK   12  A    between atoms: C_9  and  C_18 
REMARK   13  A    between atoms: C_14  and  C_19 
REMARK   14  A    between atoms: C_14  and  C_20 
REMARK   15  A    between atoms: C_21  and  C_22 
ROOT
HETATM    1  O   UNL     1      37.873  12.805 -15.101  1.00  0.00    -0.776 OA
HETATM    2  H   UNL     1      38.107  13.524 -15.703  1.00  0.00     0.167 HD
ENDROOT
BRANCH   1   3
HETATM    3  C   UNL     1      36.672  12.191 -15.171  1.00  0.00     0.139 C 
HETATM    4  O   UNL     1      35.659  12.787 -14.834  1.00  0.00    -0.650 OA
BRANCH   3   5
HETATM    5  C   UNL     1      36.585  10.776 -15.667  1.00  0.00     0.113 C 
BRANCH   5   6
HETATM    6  C   UNL     1      37.706   9.917 -15.071  1.00  0.00     0.037 C 
BRANCH   6   7
HETATM    7  C   UNL     1      37.368   8.449 -15.180  1.00  0.00    -0.030 C 
HETATM    8  C   UNL     1      38.160   7.467 -15.658  1.00  0.00    -0.027 C 
BRANCH   8   9
HETATM    9  C   UNL     1      39.570   7.599 -16.195  1.00  0.00     0.053 C 
BRANCH   9  10
HETATM   10  C   UNL     1      39.593   7.415 -17.692  1.00  0.00    -0.027 C 
HETATM   11  C   UNL     1      39.471   8.395 -18.605  1.00  0.00    -0.027 C 
BRANCH  11  12
HETATM   12  C   UNL     1      39.346   9.865 -18.299  1.00  0.00     0.053 C 
BRANCH  12  13
HETATM   13  C   UNL     1      40.700  10.530 -18.294  1.00  0.00    -0.027 C 
HETATM   14  C   UNL     1      41.362  10.996 -17.218  1.00  0.00    -0.027 C 
BRANCH  14  15
HETATM   15  C   UNL     1      40.862  10.991 -15.798  1.00  0.00     0.053 C 
BRANCH  15  16
HETATM   16  C   UNL     1      41.988  10.543 -14.893  1.00  0.00    -0.027 C 
HETATM   17  C   UNL     1      41.899  10.047 -13.643  1.00  0.00    -0.027 C 
BRANCH  17  18
HETATM   18  C   UNL     1      40.643   9.800 -12.850  1.00  0.00     0.053 C 
BRANCH  18  19
HETATM   19  C   UNL     1      40.362   8.319 -12.743  1.00  0.00    -0.027 C 
HETATM   20  C   UNL     1      39.314   7.723 -12.139  1.00  0.00    -0.027 C 
BRANCH  20  21
HETATM   21  C   UNL     1      38.141   8.402 -11.474  1.00  0.00     0.053 C 
BRANCH  21  22
HETATM   22  C   UNL     1      38.085   8.058 -10.004  1.00  0.00    -0.027 C 
HETATM   23  C   UNL     1      38.813   8.604  -9.011  1.00  0.00    -0.031 C 
BRANCH  23  24
HETATM   24  C   UNL     1      39.867   9.671  -9.153  1.00  0.00     0.022 C 
HETATM   25  C   UNL     1      41.280   9.116  -9.030  1.00  0.00     0.009 C 
ENDBRANCH  23  24
ENDBRANCH  21  22
ENDBRANCH  20  21
ENDBRANCH  18  19
ENDBRANCH  17  18
ENDBRANCH  15  16
ENDBRANCH  14  15
ENDBRANCH  12  13
ENDBRANCH  11  12
ENDBRANCH   9  10
ENDBRANCH   8   9
ENDBRANCH   6   7
ENDBRANCH   5   6
ENDBRANCH   3   5
ENDBRANCH   1   3
TORSDOF 15
ENDMDL
MODEL 20
REMARK VINA RESULT:      -4.6     26.673     29.468
REMARK  15 active torsions:
REMARK  status: ('A' for Active; 'I' for Inactive)
REMARK    1  A    between atoms: O_1  and  C_23 
REMARK    2  A    between atoms: C_3  and  C_7 
REMARK    3  A    between atoms: C_3  and  C_8 
REMARK    4  A    between atoms: C_4  and  C_10 
REMARK    5  A    between atoms: C_4  and  C_11 
REMARK    6  A    between atoms: C_5  and  C_12 
REMARK    7  A    between atoms: C_5  and  C_13 
REMARK    8  A    between atoms: C_6  and  C_15 
REMARK    9  A    between atoms: C_6  and  C_16 
REMARK   10  A    between atoms: C_7  and  C_23 
REMARK   11  A    between atoms: C_9  and  C_17 
REMARK   12  A    between atoms: C_9  and  C_18 
REMARK   13  A    between atoms: C_14  and  C_19 
REMARK   14  A    between atoms: C_14  and  C_20 
REMARK   15  A    between atoms: C_21  and  C_22 
ROOT
HETATM    1  O   UNL     1      31.737 -21.212  -5.162  1.00  0.00    -0.776 OA
HETATM    2  H   UNL     1      31.729 -21.338  -4.203  1.00  0.00     0.167 HD
ENDROOT
BRANCH   1   3
HETATM    3  C   UNL     1      30.944 -20.296  -5.758  1.00  0.00     0.139 C 
HETATM    4  O   UNL     1      30.783 -20.321  -6.970  1.00  0.00    -0.650 OA
BRANCH   3   5
HETATM    5  C   UNL     1      30.258 -19.250  -4.927  1.00  0.00     0.113 C 
BRANCH   5   6
HETATM    6  C   UNL     1      31.030 -17.927  -4.966  1.00  0.00     0.037 C 
BRANCH   6   7
HETATM    7  C   UNL     1      30.139 -16.804  -5.442  1.00  0.00    -0.030 C 
HETATM    8  C   UNL     1      29.981 -16.376  -6.713  1.00  0.00    -0.027 C 
BRANCH   8   9
HETATM    9  C   UNL     1      30.653 -16.915  -7.957  1.00  0.00     0.053 C 
BRANCH   9  10
HETATM   10  C   UNL     1      29.800 -16.672  -9.176  1.00  0.00    -0.027 C 
HETATM   11  C   UNL     1      29.994 -15.705 -10.091  1.00  0.00    -0.027 C 
BRANCH  11  12
HETATM   12  C   UNL     1      31.136 -14.723 -10.095  1.00  0.00     0.053 C 
BRANCH  12  13
HETATM   13  C   UNL     1      30.626 -13.305 -10.179  1.00  0.00    -0.027 C 
HETATM   14  C   UNL     1      30.316 -12.501  -9.144  1.00  0.00    -0.027 C 
BRANCH  14  15
HETATM   15  C   UNL     1      30.367 -12.872  -7.686  1.00  0.00     0.053 C 
BRANCH  15  16
HETATM   16  C   UNL     1      29.051 -12.490  -7.046  1.00  0.00    -0.027 C 
HETATM   17  C   UNL     1      28.808 -12.220  -5.748  1.00  0.00    -0.027 C 
BRANCH  17  18
HETATM   18  C   UNL     1      29.805 -12.216  -4.618  1.00  0.00     0.053 C 
BRANCH  18  19
HETATM   19  C   UNL     1      29.637 -13.444  -3.755  1.00  0.00    -0.027 C 
HETATM   20  C   UNL     1      30.586 -14.078  -3.035  1.00  0.00    -0.027 C 
BRANCH  20  21
HETATM   21  C   UNL     1      32.031 -13.673  -2.879  1.00  0.00     0.053 C 
BRANCH  21  22
HETATM   22  C   UNL     1      32.952 -14.780  -3.338  1.00  0.00    -0.027 C 
HETATM   23  C   UNL     1      33.358 -15.032  -4.598  1.00  0.00    -0.031 C 
BRANCH  23  24
HETATM   24  C   UNL     1      32.965 -14.271  -5.837  1.00  0.00     0.022 C 
HETATM   25  C   UNL     1      33.591 -14.849  -7.100  1.00  0.00     0.009 C 
ENDBRANCH  23  24
ENDBRANCH  21  22
ENDBRANCH  20  21
ENDBRANCH  18  19
ENDBRANCH  17  18
ENDBRANCH  15  16
ENDBRANCH  14  15
ENDBRANCH  12  13
ENDBRANCH  11  12
ENDBRANCH   9  10
ENDBRANCH   8   9
ENDBRANCH   6   7
ENDBRANCH   5   6
ENDBRANCH   3   5
ENDBRANCH   1   3
TORSDOF 15
ENDMDL
