MODEL 1
REMARK VINA RESULT:      -6.0      0.000      0.000
REMARK  17 active torsions:
REMARK  status: ('A' for Active; 'I' for Inactive)
REMARK    1  A    between atoms: O_1  and  C_20 
REMARK    2  A    between atoms: C_3  and  C_4 
REMARK    3  A    between atoms: C_3  and  C_5 
REMARK    4  A    between atoms: C_4  and  C_6 
REMARK    5  A    between atoms: C_5  and  C_7 
REMARK    6  A    between atoms: C_6  and  C_8 
REMARK    7  A    between atoms: C_7  and  C_9 
REMARK    8  A    between atoms: C_8  and  C_10 
REMARK    9  A    between atoms: C_9  and  C_11 
REMARK   10  A    between atoms: C_10  and  C_12 
REMARK   11  A    between atoms: C_11  and  C_13 
REMARK   12  A    between atoms: C_12  and  C_14 
REMARK   13  A    between atoms: C_13  and  C_15 
REMARK   14  A    between atoms: C_14  and  C_16 
REMARK   15  A    between atoms: C_15  and  C_17 
REMARK   16  A    between atoms: C_16  and  C_18 
REMARK   17  A    between atoms: C_18  and  C_20 
ROOT
HETATM    1  O   UNL     1      -3.643  -7.172 -25.389  1.00  0.00    -0.776 OA
HETATM    2  H   UNL     1      -4.400  -7.376 -25.955  1.00  0.00     0.167 HD
ENDROOT
BRANCH   1   3
HETATM    3  C   UNL     1      -3.534  -7.682 -24.145  1.00  0.00     0.139 C 
HETATM    4  O   UNL     1      -4.487  -8.258 -23.640  1.00  0.00    -0.650 OA
BRANCH   3   5
HETATM    5  C   UNL     1      -2.262  -7.510 -23.357  1.00  0.00     0.110 C 
BRANCH   5   6
HETATM    6  C   UNL     1      -2.285  -8.216 -21.988  1.00  0.00     0.010 C 
BRANCH   6   7
HETATM    7  C   UNL     1      -2.199  -7.293 -20.755  1.00  0.00     0.001 C 
BRANCH   7   8
HETATM    8  C   UNL     1      -1.842  -8.005 -19.434  1.00  0.00     0.000 C 
BRANCH   8   9
HETATM    9  C   UNL     1      -2.945  -7.979 -18.357  1.00  0.00     0.000 C 
BRANCH   9  10
HETATM   10  C   UNL     1      -2.450  -8.174 -16.911  1.00  0.00     0.000 C 
BRANCH  10  11
HETATM   11  C   UNL     1      -1.969  -6.889 -16.206  1.00  0.00     0.000 C 
BRANCH  11  12
HETATM   12  C   UNL     1      -2.150  -6.877 -14.676  1.00  0.00     0.000 C 
BRANCH  12  13
HETATM   13  C   UNL     1      -2.650  -8.203 -14.066  1.00  0.00     0.000 C 
BRANCH  13  14
HETATM   14  C   UNL     1      -3.189  -8.094 -12.626  1.00  0.00     0.000 C 
BRANCH  14  15
HETATM   15  C   UNL     1      -2.111  -7.936 -11.535  1.00  0.00     0.000 C 
BRANCH  15  16
HETATM   16  C   UNL     1      -2.389  -6.829 -10.499  1.00  0.00     0.000 C 
BRANCH  16  17
HETATM   17  C   UNL     1      -1.726  -7.042  -9.123  1.00  0.00     0.000 C 
BRANCH  17  18
HETATM   18  C   UNL     1      -2.268  -8.237  -8.315  1.00  0.00     0.000 C 
BRANCH  18  19
HETATM   19  C   UNL     1      -3.022  -7.863  -7.023  1.00  0.00    -0.000 C 
BRANCH  19  20
HETATM   20  C   UNL     1      -2.144  -7.292  -5.894  1.00  0.00    -0.005 C 
HETATM   21  C   UNL     1      -2.369  -7.981  -4.548  1.00  0.00     0.005 C 
ENDBRANCH  19  20
ENDBRANCH  18  19
ENDBRANCH  17  18
ENDBRANCH  16  17
ENDBRANCH  15  16
ENDBRANCH  14  15
ENDBRANCH  13  14
ENDBRANCH  12  13
ENDBRANCH  11  12
ENDBRANCH  10  11
ENDBRANCH   9  10
ENDBRANCH   8   9
ENDBRANCH   7   8
ENDBRANCH   6   7
ENDBRANCH   5   6
ENDBRANCH   3   5
ENDBRANCH   1   3
TORSDOF 17
ENDMDL
MODEL 2
REMARK VINA RESULT:      -6.0      2.491      5.340
REMARK  17 active torsions:
REMARK  status: ('A' for Active; 'I' for Inactive)
REMARK    1  A    between atoms: O_1  and  C_20 
REMARK    2  A    between atoms: C_3  and  C_4 
REMARK    3  A    between atoms: C_3  and  C_5 
REMARK    4  A    between atoms: C_4  and  C_6 
REMARK    5  A    between atoms: C_5  and  C_7 
REMARK    6  A    between atoms: C_6  and  C_8 
REMARK    7  A    between atoms: C_7  and  C_9 
REMARK    8  A    between atoms: C_8  and  C_10 
REMARK    9  A    between atoms: C_9  and  C_11 
REMARK   10  A    between atoms: C_10  and  C_12 
REMARK   11  A    between atoms: C_11  and  C_13 
REMARK   12  A    between atoms: C_12  and  C_14 
REMARK   13  A    between atoms: C_13  and  C_15 
REMARK   14  A    between atoms: C_14  and  C_16 
REMARK   15  A    between atoms: C_15  and  C_17 
REMARK   16  A    between atoms: C_16  and  C_18 
REMARK   17  A    between atoms: C_18  and  C_20 
ROOT
HETATM    1  O   UNL     1      -1.886  -7.618 -20.000  1.00  0.00    -0.776 OA
HETATM    2  H   UNL     1      -2.031  -6.852 -20.573  1.00  0.00     0.167 HD
ENDROOT
BRANCH   1   3
HETATM    3  C   UNL     1      -2.704  -7.887 -18.961  1.00  0.00     0.139 C 
HETATM    4  O   UNL     1      -3.913  -7.772 -19.096  1.00  0.00    -0.650 OA
BRANCH   3   5
HETATM    5  C   UNL     1      -2.135  -8.288 -17.625  1.00  0.00     0.110 C 
BRANCH   5   6
HETATM    6  C   UNL     1      -2.938  -7.748 -16.427  1.00  0.00     0.010 C 
BRANCH   6   7
HETATM    7  C   UNL     1      -2.118  -7.024 -15.340  1.00  0.00     0.001 C 
BRANCH   7   8
HETATM    8  C   UNL     1      -1.736  -7.894 -14.126  1.00  0.00     0.000 C 
BRANCH   8   9
HETATM    9  C   UNL     1      -2.866  -8.120 -13.101  1.00  0.00     0.000 C 
BRANCH   9  10
HETATM   10  C   UNL     1      -2.504  -7.776 -11.643  1.00  0.00     0.000 C 
BRANCH  10  11
HETATM   11  C   UNL     1      -3.685  -7.305 -10.771  1.00  0.00     0.000 C 
BRANCH  11  12
HETATM   12  C   UNL     1      -3.642  -7.776  -9.304  1.00  0.00     0.000 C 
BRANCH  12  13
HETATM   13  C   UNL     1      -2.228  -7.927  -8.707  1.00  0.00     0.000 C 
BRANCH  13  14
HETATM   14  C   UNL     1      -2.162  -7.870  -7.167  1.00  0.00     0.000 C 
BRANCH  14  15
HETATM   15  C   UNL     1      -3.529  -7.789  -6.458  1.00  0.00     0.000 C 
BRANCH  15  16
HETATM   16  C   UNL     1      -3.462  -7.534  -4.939  1.00  0.00     0.000 C 
BRANCH  16  17
HETATM   17  C   UNL     1      -2.187  -8.054  -4.246  1.00  0.00     0.000 C 
BRANCH  17  18
HETATM   18  C   UNL     1      -2.365  -8.460  -2.769  1.00  0.00     0.000 C 
BRANCH  18  19
HETATM   19  C   UNL     1      -3.801  -8.861  -2.373  1.00  0.00    -0.000 C 
BRANCH  19  20
HETATM   20  C   UNL     1      -3.986 -10.342  -1.992  1.00  0.00    -0.005 C 
HETATM   21  C   UNL     1      -2.742 -10.960  -1.354  1.00  0.00     0.005 C 
ENDBRANCH  19  20
ENDBRANCH  18  19
ENDBRANCH  17  18
ENDBRANCH  16  17
ENDBRANCH  15  16
ENDBRANCH  14  15
ENDBRANCH  13  14
ENDBRANCH  12  13
ENDBRANCH  11  12
ENDBRANCH  10  11
ENDBRANCH   9  10
ENDBRANCH   8   9
ENDBRANCH   7   8
ENDBRANCH   6   7
ENDBRANCH   5   6
ENDBRANCH   3   5
ENDBRANCH   1   3
TORSDOF 17
ENDMDL
MODEL 3
REMARK VINA RESULT:      -5.8      1.392      2.027
REMARK  17 active torsions:
REMARK  status: ('A' for Active; 'I' for Inactive)
REMARK    1  A    between atoms: O_1  and  C_20 
REMARK    2  A    between atoms: C_3  and  C_4 
REMARK    3  A    between atoms: C_3  and  C_5 
REMARK    4  A    between atoms: C_4  and  C_6 
REMARK    5  A    between atoms: C_5  and  C_7 
REMARK    6  A    between atoms: C_6  and  C_8 
REMARK    7  A    between atoms: C_7  and  C_9 
REMARK    8  A    between atoms: C_8  and  C_10 
REMARK    9  A    between atoms: C_9  and  C_11 
REMARK   10  A    between atoms: C_10  and  C_12 
REMARK   11  A    between atoms: C_11  and  C_13 
REMARK   12  A    between atoms: C_12  and  C_14 
REMARK   13  A    between atoms: C_13  and  C_15 
REMARK   14  A    between atoms: C_14  and  C_16 
REMARK   15  A    between atoms: C_15  and  C_17 
REMARK   16  A    between atoms: C_16  and  C_18 
REMARK   17  A    between atoms: C_18  and  C_20 
ROOT
HETATM    1  O   UNL     1      -0.656  -5.917 -25.650  1.00  0.00    -0.776 OA
HETATM    2  H   UNL     1      -0.132  -6.346 -24.959  1.00  0.00     0.167 HD
ENDROOT
BRANCH   1   3
HETATM    3  C   UNL     1      -1.997  -6.054 -25.707  1.00  0.00     0.139 C 
HETATM    4  O   UNL     1      -2.659  -5.267 -26.368  1.00  0.00    -0.650 OA
BRANCH   3   5
HETATM    5  C   UNL     1      -2.688  -7.142 -24.928  1.00  0.00     0.110 C 
BRANCH   5   6
HETATM    6  C   UNL     1      -1.784  -7.819 -23.880  1.00  0.00     0.010 C 
BRANCH   6   7
HETATM    7  C   UNL     1      -2.498  -8.356 -22.623  1.00  0.00     0.001 C 
BRANCH   7   8
HETATM    8  C   UNL     1      -2.447  -7.423 -21.397  1.00  0.00     0.000 C 
BRANCH   8   9
HETATM    9  C   UNL     1      -2.060  -8.105 -20.070  1.00  0.00     0.000 C 
BRANCH   9  10
HETATM   10  C   UNL     1      -2.721  -7.509 -18.812  1.00  0.00     0.000 C 
BRANCH  10  11
HETATM   11  C   UNL     1      -2.000  -7.822 -17.485  1.00  0.00     0.000 C 
BRANCH  11  12
HETATM   12  C   UNL     1      -2.892  -7.770 -16.229  1.00  0.00     0.000 C 
BRANCH  12  13
HETATM   13  C   UNL     1      -2.219  -7.178 -14.974  1.00  0.00     0.000 C 
BRANCH  13  14
HETATM   14  C   UNL     1      -1.918  -8.195 -13.855  1.00  0.00     0.000 C 
BRANCH  14  15
HETATM   15  C   UNL     1      -2.762  -8.028 -12.575  1.00  0.00     0.000 C 
BRANCH  15  16
HETATM   16  C   UNL     1      -2.103  -7.188 -11.464  1.00  0.00     0.000 C 
BRANCH  16  17
HETATM   17  C   UNL     1      -2.744  -7.332 -10.069  1.00  0.00     0.000 C 
BRANCH  17  18
HETATM   18  C   UNL     1      -1.830  -7.947  -8.991  1.00  0.00     0.000 C 
BRANCH  18  19
HETATM   19  C   UNL     1      -2.550  -8.385  -7.699  1.00  0.00    -0.000 C 
BRANCH  19  20
HETATM   20  C   UNL     1      -2.227  -7.541  -6.451  1.00  0.00    -0.005 C 
HETATM   21  C   UNL     1      -3.415  -7.393  -5.501  1.00  0.00     0.005 C 
ENDBRANCH  19  20
ENDBRANCH  18  19
ENDBRANCH  17  18
ENDBRANCH  16  17
ENDBRANCH  15  16
ENDBRANCH  14  15
ENDBRANCH  13  14
ENDBRANCH  12  13
ENDBRANCH  11  12
ENDBRANCH  10  11
ENDBRANCH   9  10
ENDBRANCH   8   9
ENDBRANCH   7   8
ENDBRANCH   6   7
ENDBRANCH   5   6
ENDBRANCH   3   5
ENDBRANCH   1   3
TORSDOF 17
ENDMDL
MODEL 4
REMARK VINA RESULT:      -5.7      7.434     13.909
REMARK  17 active torsions:
REMARK  status: ('A' for Active; 'I' for Inactive)
REMARK    1  A    between atoms: O_1  and  C_20 
REMARK    2  A    between atoms: C_3  and  C_4 
REMARK    3  A    between atoms: C_3  and  C_5 
REMARK    4  A    between atoms: C_4  and  C_6 
REMARK    5  A    between atoms: C_5  and  C_7 
REMARK    6  A    between atoms: C_6  and  C_8 
REMARK    7  A    between atoms: C_7  and  C_9 
REMARK    8  A    between atoms: C_8  and  C_10 
REMARK    9  A    between atoms: C_9  and  C_11 
REMARK   10  A    between atoms: C_10  and  C_12 
REMARK   11  A    between atoms: C_11  and  C_13 
REMARK   12  A    between atoms: C_12  and  C_14 
REMARK   13  A    between atoms: C_13  and  C_15 
REMARK   14  A    between atoms: C_14  and  C_16 
REMARK   15  A    between atoms: C_15  and  C_17 
REMARK   16  A    between atoms: C_16  and  C_18 
REMARK   17  A    between atoms: C_18  and  C_20 
ROOT
HETATM    1  O   UNL     1      -4.396 -10.736  -0.769  1.00  0.00    -0.776 OA
HETATM    2  H   UNL     1      -4.274 -11.681  -0.934  1.00  0.00     0.167 HD
ENDROOT
BRANCH   1   3
HETATM    3  C   UNL     1      -3.846  -9.802  -1.572  1.00  0.00     0.139 C 
HETATM    4  O   UNL     1      -2.634  -9.778  -1.732  1.00  0.00    -0.650 OA
BRANCH   3   5
HETATM    5  C   UNL     1      -4.708  -8.763  -2.239  1.00  0.00     0.110 C 
BRANCH   5   6
HETATM    6  C   UNL     1      -4.498  -8.673  -3.762  1.00  0.00     0.010 C 
BRANCH   6   7
HETATM    7  C   UNL     1      -3.739  -7.427  -4.263  1.00  0.00     0.001 C 
BRANCH   7   8
HETATM    8  C   UNL     1      -2.277  -7.681  -4.682  1.00  0.00     0.000 C 
BRANCH   8   9
HETATM    9  C   UNL     1      -1.947  -7.337  -6.148  1.00  0.00     0.000 C 
BRANCH   9  10
HETATM   10  C   UNL     1      -2.798  -8.076  -7.200  1.00  0.00     0.000 C 
BRANCH  10  11
HETATM   11  C   UNL     1      -2.108  -8.292  -8.563  1.00  0.00     0.000 C 
BRANCH  11  12
HETATM   12  C   UNL     1      -2.309  -7.156  -9.584  1.00  0.00     0.000 C 
BRANCH  12  13
HETATM   13  C   UNL     1      -3.059  -7.558 -10.870  1.00  0.00     0.000 C 
BRANCH  13  14
HETATM   14  C   UNL     1      -2.163  -7.777 -12.105  1.00  0.00     0.000 C 
BRANCH  14  15
HETATM   15  C   UNL     1      -2.794  -8.624 -13.228  1.00  0.00     0.000 C 
BRANCH  15  16
HETATM   16  C   UNL     1      -3.848  -7.894 -14.084  1.00  0.00     0.000 C 
BRANCH  16  17
HETATM   17  C   UNL     1      -3.287  -7.138 -15.305  1.00  0.00     0.000 C 
BRANCH  17  18
HETATM   18  C   UNL     1      -2.146  -7.858 -16.051  1.00  0.00     0.000 C 
BRANCH  18  19
HETATM   19  C   UNL     1      -2.119  -7.631 -17.577  1.00  0.00    -0.000 C 
BRANCH  19  20
HETATM   20  C   UNL     1      -3.389  -8.074 -18.328  1.00  0.00    -0.005 C 
HETATM   21  C   UNL     1      -3.397  -7.654 -19.797  1.00  0.00     0.005 C 
ENDBRANCH  19  20
ENDBRANCH  18  19
ENDBRANCH  17  18
ENDBRANCH  16  17
ENDBRANCH  15  16
ENDBRANCH  14  15
ENDBRANCH  13  14
ENDBRANCH  12  13
ENDBRANCH  11  12
ENDBRANCH  10  11
ENDBRANCH   9  10
ENDBRANCH   8   9
ENDBRANCH   7   8
ENDBRANCH   6   7
ENDBRANCH   5   6
ENDBRANCH   3   5
ENDBRANCH   1   3
TORSDOF 17
ENDMDL
MODEL 5
REMARK VINA RESULT:      -5.6      6.797     13.342
REMARK  17 active torsions:
REMARK  status: ('A' for Active; 'I' for Inactive)
REMARK    1  A    between atoms: O_1  and  C_20 
REMARK    2  A    between atoms: C_3  and  C_4 
REMARK    3  A    between atoms: C_3  and  C_5 
REMARK    4  A    between atoms: C_4  and  C_6 
REMARK    5  A    between atoms: C_5  and  C_7 
REMARK    6  A    between atoms: C_6  and  C_8 
REMARK    7  A    between atoms: C_7  and  C_9 
REMARK    8  A    between atoms: C_8  and  C_10 
REMARK    9  A    between atoms: C_9  and  C_11 
REMARK   10  A    between atoms: C_10  and  C_12 
REMARK   11  A    between atoms: C_11  and  C_13 
REMARK   12  A    between atoms: C_12  and  C_14 
REMARK   13  A    between atoms: C_13  and  C_15 
REMARK   14  A    between atoms: C_14  and  C_16 
REMARK   15  A    between atoms: C_15  and  C_17 
REMARK   16  A    between atoms: C_16  and  C_18 
REMARK   17  A    between atoms: C_18  and  C_20 
ROOT
HETATM    1  O   UNL     1      -3.776  -8.614  -3.242  1.00  0.00    -0.776 OA
HETATM    2  H   UNL     1      -3.563  -9.474  -2.856  1.00  0.00     0.167 HD
ENDROOT
BRANCH   1   3
HETATM    3  C   UNL     1      -2.824  -7.829  -3.786  1.00  0.00     0.139 C 
HETATM    4  O   UNL     1      -1.856  -7.498  -3.118  1.00  0.00    -0.650 OA
BRANCH   3   5
HETATM    5  C   UNL     1      -2.965  -7.323  -5.198  1.00  0.00     0.110 C 
BRANCH   5   6
HETATM    6  C   UNL     1      -2.352  -8.263  -6.254  1.00  0.00     0.010 C 
BRANCH   6   7
HETATM    7  C   UNL     1      -2.812  -8.031  -7.708  1.00  0.00     0.001 C 
BRANCH   7   8
HETATM    8  C   UNL     1      -1.702  -7.579  -8.676  1.00  0.00     0.000 C 
BRANCH   8   9
HETATM    9  C   UNL     1      -2.141  -6.561  -9.747  1.00  0.00     0.000 C 
BRANCH   9  10
HETATM   10  C   UNL     1      -1.877  -6.989 -11.204  1.00  0.00     0.000 C 
BRANCH  10  11
HETATM   11  C   UNL     1      -2.922  -7.954 -11.800  1.00  0.00     0.000 C 
BRANCH  11  12
HETATM   12  C   UNL     1      -2.591  -8.485 -13.209  1.00  0.00     0.000 C 
BRANCH  12  13
HETATM   13  C   UNL     1      -3.561  -8.037 -14.321  1.00  0.00     0.000 C 
BRANCH  13  14
HETATM   14  C   UNL     1      -2.958  -7.074 -15.363  1.00  0.00     0.000 C 
BRANCH  14  15
HETATM   15  C   UNL     1      -2.144  -7.752 -16.483  1.00  0.00     0.000 C 
BRANCH  15  16
HETATM   16  C   UNL     1      -2.925  -8.025 -17.784  1.00  0.00     0.000 C 
BRANCH  16  17
HETATM   17  C   UNL     1      -2.099  -7.898 -19.080  1.00  0.00     0.000 C 
BRANCH  17  18
HETATM   18  C   UNL     1      -2.910  -7.524 -20.336  1.00  0.00     0.000 C 
BRANCH  18  19
HETATM   19  C   UNL     1      -2.093  -7.458 -21.643  1.00  0.00    -0.000 C 
BRANCH  19  20
HETATM   20  C   UNL     1      -2.697  -8.226 -22.833  1.00  0.00    -0.005 C 
HETATM   21  C   UNL     1      -1.938  -8.005 -24.141  1.00  0.00     0.005 C 
ENDBRANCH  19  20
ENDBRANCH  18  19
ENDBRANCH  17  18
ENDBRANCH  16  17
ENDBRANCH  15  16
ENDBRANCH  14  15
ENDBRANCH  13  14
ENDBRANCH  12  13
ENDBRANCH  11  12
ENDBRANCH  10  11
ENDBRANCH   9  10
ENDBRANCH   8   9
ENDBRANCH   7   8
ENDBRANCH   6   7
ENDBRANCH   5   6
ENDBRANCH   3   5
ENDBRANCH   1   3
TORSDOF 17
ENDMDL
MODEL 6
REMARK VINA RESULT:      -5.3      1.544      2.369
REMARK  17 active torsions:
REMARK  status: ('A' for Active; 'I' for Inactive)
REMARK    1  A    between atoms: O_1  and  C_20 
REMARK    2  A    between atoms: C_3  and  C_4 
REMARK    3  A    between atoms: C_3  and  C_5 
REMARK    4  A    between atoms: C_4  and  C_6 
REMARK    5  A    between atoms: C_5  and  C_7 
REMARK    6  A    between atoms: C_6  and  C_8 
REMARK    7  A    between atoms: C_7  and  C_9 
REMARK    8  A    between atoms: C_8  and  C_10 
REMARK    9  A    between atoms: C_9  and  C_11 
REMARK   10  A    between atoms: C_10  and  C_12 
REMARK   11  A    between atoms: C_11  and  C_13 
REMARK   12  A    between atoms: C_12  and  C_14 
REMARK   13  A    between atoms: C_13  and  C_15 
REMARK   14  A    between atoms: C_14  and  C_16 
REMARK   15  A    between atoms: C_15  and  C_17 
REMARK   16  A    between atoms: C_16  and  C_18 
REMARK   17  A    between atoms: C_18  and  C_20 
ROOT
HETATM    1  O   UNL     1      -5.795  -9.708 -23.086  1.00  0.00    -0.776 OA
HETATM    2  H   UNL     1      -5.795 -10.434 -22.447  1.00  0.00     0.167 HD
ENDROOT
BRANCH   1   3
HETATM    3  C   UNL     1      -5.224  -8.519 -22.805  1.00  0.00     0.139 C 
HETATM    4  O   UNL     1      -5.556  -7.910 -21.798  1.00  0.00    -0.650 OA
BRANCH   3   5
HETATM    5  C   UNL     1      -4.211  -7.916 -23.743  1.00  0.00     0.110 C 
BRANCH   5   6
HETATM    6  C   UNL     1      -2.763  -8.352 -23.449  1.00  0.00     0.010 C 
BRANCH   6   7
HETATM    7  C   UNL     1      -1.956  -7.421 -22.522  1.00  0.00     0.001 C 
BRANCH   7   8
HETATM    8  C   UNL     1      -1.845  -7.896 -21.059  1.00  0.00     0.000 C 
BRANCH   8   9
HETATM    9  C   UNL     1      -2.641  -7.061 -20.037  1.00  0.00     0.000 C 
BRANCH   9  10
HETATM   10  C   UNL     1      -3.473  -7.881 -19.031  1.00  0.00     0.000 C 
BRANCH  10  11
HETATM   11  C   UNL     1      -2.693  -8.396 -17.805  1.00  0.00     0.000 C 
BRANCH  11  12
HETATM   12  C   UNL     1      -2.064  -7.299 -16.924  1.00  0.00     0.000 C 
BRANCH  12  13
HETATM   13  C   UNL     1      -2.197  -7.524 -15.404  1.00  0.00     0.000 C 
BRANCH  13  14
HETATM   14  C   UNL     1      -3.640  -7.734 -14.901  1.00  0.00     0.000 C 
BRANCH  14  15
HETATM   15  C   UNL     1      -3.758  -8.241 -13.450  1.00  0.00     0.000 C 
BRANCH  15  16
HETATM   16  C   UNL     1      -2.449  -8.205 -12.637  1.00  0.00     0.000 C 
BRANCH  16  17
HETATM   17  C   UNL     1      -2.528  -7.428 -11.308  1.00  0.00     0.000 C 
BRANCH  17  18
HETATM   18  C   UNL     1      -1.764  -8.067 -10.131  1.00  0.00     0.000 C 
BRANCH  18  19
HETATM   19  C   UNL     1      -1.906  -7.329  -8.784  1.00  0.00    -0.000 C 
BRANCH  19  20
HETATM   20  C   UNL     1      -2.633  -8.116  -7.678  1.00  0.00    -0.005 C 
HETATM   21  C   UNL     1      -4.124  -8.307  -7.955  1.00  0.00     0.005 C 
ENDBRANCH  19  20
ENDBRANCH  18  19
ENDBRANCH  17  18
ENDBRANCH  16  17
ENDBRANCH  15  16
ENDBRANCH  14  15
ENDBRANCH  13  14
ENDBRANCH  12  13
ENDBRANCH  11  12
ENDBRANCH  10  11
ENDBRANCH   9  10
ENDBRANCH   8   9
ENDBRANCH   7   8
ENDBRANCH   6   7
ENDBRANCH   5   6
ENDBRANCH   3   5
ENDBRANCH   1   3
TORSDOF 17
ENDMDL
MODEL 7
REMARK VINA RESULT:      -4.8      5.083      9.703
REMARK  17 active torsions:
REMARK  status: ('A' for Active; 'I' for Inactive)
REMARK    1  A    between atoms: O_1  and  C_20 
REMARK    2  A    between atoms: C_3  and  C_4 
REMARK    3  A    between atoms: C_3  and  C_5 
REMARK    4  A    between atoms: C_4  and  C_6 
REMARK    5  A    between atoms: C_5  and  C_7 
REMARK    6  A    between atoms: C_6  and  C_8 
REMARK    7  A    between atoms: C_7  and  C_9 
REMARK    8  A    between atoms: C_8  and  C_10 
REMARK    9  A    between atoms: C_9  and  C_11 
REMARK   10  A    between atoms: C_10  and  C_12 
REMARK   11  A    between atoms: C_11  and  C_13 
REMARK   12  A    between atoms: C_12  and  C_14 
REMARK   13  A    between atoms: C_13  and  C_15 
REMARK   14  A    between atoms: C_14  and  C_16 
REMARK   15  A    between atoms: C_15  and  C_17 
REMARK   16  A    between atoms: C_16  and  C_18 
REMARK   17  A    between atoms: C_18  and  C_20 
ROOT
HETATM    1  O   UNL     1      -3.619  -7.551 -15.275  1.00  0.00    -0.776 OA
HETATM    2  H   UNL     1      -3.590  -8.004 -16.129  1.00  0.00     0.167 HD
ENDROOT
BRANCH   1   3
HETATM    3  C   UNL     1      -2.723  -7.818 -14.303  1.00  0.00     0.139 C 
HETATM    4  O   UNL     1      -1.535  -7.894 -14.577  1.00  0.00    -0.650 OA
BRANCH   3   5
HETATM    5  C   UNL     1      -3.181  -8.066 -12.889  1.00  0.00     0.110 C 
BRANCH   5   6
HETATM    6  C   UNL     1      -2.179  -7.583 -11.823  1.00  0.00     0.010 C 
BRANCH   6   7
HETATM    7  C   UNL     1      -2.689  -7.596 -10.368  1.00  0.00     0.001 C 
BRANCH   7   8
HETATM    8  C   UNL     1      -1.690  -8.154  -9.334  1.00  0.00     0.000 C 
BRANCH   8   9
HETATM    9  C   UNL     1      -2.320  -8.662  -8.022  1.00  0.00     0.000 C 
BRANCH   9  10
HETATM   10  C   UNL     1      -2.430  -7.610  -6.900  1.00  0.00     0.000 C 
BRANCH  10  11
HETATM   11  C   UNL     1      -3.766  -7.615  -6.130  1.00  0.00     0.000 C 
BRANCH  11  12
HETATM   12  C   UNL     1      -3.636  -7.532  -4.597  1.00  0.00     0.000 C 
BRANCH  12  13
HETATM   13  C   UNL     1      -2.227  -7.830  -4.043  1.00  0.00     0.000 C 
BRANCH  13  14
HETATM   14  C   UNL     1      -2.179  -8.878  -2.914  1.00  0.00     0.000 C 
BRANCH  14  15
HETATM   15  C   UNL     1      -2.747  -8.406  -1.560  1.00  0.00     0.000 C 
BRANCH  15  16
HETATM   16  C   UNL     1      -3.643  -9.429  -0.836  1.00  0.00     0.000 C 
BRANCH  16  17
HETATM   17  C   UNL     1      -5.144  -9.338  -1.176  1.00  0.00     0.000 C 
BRANCH  17  18
HETATM   18  C   UNL     1      -5.949 -10.629  -0.930  1.00  0.00     0.000 C 
BRANCH  18  19
HETATM   19  C   UNL     1      -5.098 -11.896  -0.706  1.00  0.00    -0.000 C 
BRANCH  19  20
HETATM   20  C   UNL     1      -5.782 -13.222  -1.085  1.00  0.00    -0.005 C 
HETATM   21  C   UNL     1      -7.295 -13.203  -0.867  1.00  0.00     0.005 C 
ENDBRANCH  19  20
ENDBRANCH  18  19
ENDBRANCH  17  18
ENDBRANCH  16  17
ENDBRANCH  15  16
ENDBRANCH  14  15
ENDBRANCH  13  14
ENDBRANCH  12  13
ENDBRANCH  11  12
ENDBRANCH  10  11
ENDBRANCH   9  10
ENDBRANCH   8   9
ENDBRANCH   7   8
ENDBRANCH   6   7
ENDBRANCH   5   6
ENDBRANCH   3   5
ENDBRANCH   1   3
TORSDOF 17
ENDMDL
MODEL 8
REMARK VINA RESULT:      -4.7      6.174     12.526
REMARK  17 active torsions:
REMARK  status: ('A' for Active; 'I' for Inactive)
REMARK    1  A    between atoms: O_1  and  C_20 
REMARK    2  A    between atoms: C_3  and  C_4 
REMARK    3  A    between atoms: C_3  and  C_5 
REMARK    4  A    between atoms: C_4  and  C_6 
REMARK    5  A    between atoms: C_5  and  C_7 
REMARK    6  A    between atoms: C_6  and  C_8 
REMARK    7  A    between atoms: C_7  and  C_9 
REMARK    8  A    between atoms: C_8  and  C_10 
REMARK    9  A    between atoms: C_9  and  C_11 
REMARK   10  A    between atoms: C_10  and  C_12 
REMARK   11  A    between atoms: C_11  and  C_13 
REMARK   12  A    between atoms: C_12  and  C_14 
REMARK   13  A    between atoms: C_13  and  C_15 
REMARK   14  A    between atoms: C_14  and  C_16 
REMARK   15  A    between atoms: C_15  and  C_17 
REMARK   16  A    between atoms: C_16  and  C_18 
REMARK   17  A    between atoms: C_18  and  C_20 
ROOT
HETATM    1  O   UNL     1      -1.405  -8.306  -5.771  1.00  0.00    -0.776 OA
HETATM    2  H   UNL     1      -0.479  -8.205  -6.031  1.00  0.00     0.167 HD
ENDROOT
BRANCH   1   3
HETATM    3  C   UNL     1      -2.111  -7.276  -5.260  1.00  0.00     0.139 C 
HETATM    4  O   UNL     1      -1.801  -6.128  -5.545  1.00  0.00    -0.650 OA
BRANCH   3   5
HETATM    5  C   UNL     1      -3.251  -7.528  -4.310  1.00  0.00     0.110 C 
BRANCH   5   6
HETATM    6  C   UNL     1      -4.455  -8.232  -4.964  1.00  0.00     0.010 C 
BRANCH   6   7
HETATM    7  C   UNL     1      -4.970  -7.604  -6.275  1.00  0.00     0.001 C 
BRANCH   7   8
HETATM    8  C   UNL     1      -5.503  -8.611  -7.313  1.00  0.00     0.000 C 
BRANCH   8   9
HETATM    9  C   UNL     1      -4.750  -8.624  -8.659  1.00  0.00     0.000 C 
BRANCH   9  10
HETATM   10  C   UNL     1      -3.580  -7.626  -8.762  1.00  0.00     0.000 C 
BRANCH  10  11
HETATM   11  C   UNL     1      -2.217  -8.254  -9.120  1.00  0.00     0.000 C 
BRANCH  11  12
HETATM   12  C   UNL     1      -1.664  -7.866 -10.505  1.00  0.00     0.000 C 
BRANCH  12  13
HETATM   13  C   UNL     1      -2.700  -7.871 -11.648  1.00  0.00     0.000 C 
BRANCH  13  14
HETATM   14  C   UNL     1      -2.158  -8.330 -13.016  1.00  0.00     0.000 C 
BRANCH  14  15
HETATM   15  C   UNL     1      -2.168  -7.252 -14.118  1.00  0.00     0.000 C 
BRANCH  15  16
HETATM   16  C   UNL     1      -2.072  -7.791 -15.559  1.00  0.00     0.000 C 
BRANCH  16  17
HETATM   17  C   UNL     1      -3.412  -7.869 -16.317  1.00  0.00     0.000 C 
BRANCH  17  18
HETATM   18  C   UNL     1      -3.293  -8.161 -17.826  1.00  0.00     0.000 C 
BRANCH  18  19
HETATM   19  C   UNL     1      -1.958  -7.732 -18.470  1.00  0.00    -0.000 C 
BRANCH  19  20
HETATM   20  C   UNL     1      -2.013  -7.480 -19.988  1.00  0.00    -0.005 C 
HETATM   21  C   UNL     1      -3.434  -7.506 -20.552  1.00  0.00     0.005 C 
ENDBRANCH  19  20
ENDBRANCH  18  19
ENDBRANCH  17  18
ENDBRANCH  16  17
ENDBRANCH  15  16
ENDBRANCH  14  15
ENDBRANCH  13  14
ENDBRANCH  12  13
ENDBRANCH  11  12
ENDBRANCH  10  11
ENDBRANCH   9  10
ENDBRANCH   8   9
ENDBRANCH   7   8
ENDBRANCH   6   7
ENDBRANCH   5   6
ENDBRANCH   3   5
ENDBRANCH   1   3
TORSDOF 17
ENDMDL
MODEL 9
REMARK VINA RESULT:      -4.7     33.932     35.076
REMARK  17 active torsions:
REMARK  status: ('A' for Active; 'I' for Inactive)
REMARK    1  A    between atoms: O_1  and  C_20 
REMARK    2  A    between atoms: C_3  and  C_4 
REMARK    3  A    between atoms: C_3  and  C_5 
REMARK    4  A    between atoms: C_4  and  C_6 
REMARK    5  A    between atoms: C_5  and  C_7 
REMARK    6  A    between atoms: C_6  and  C_8 
REMARK    7  A    between atoms: C_7  and  C_9 
REMARK    8  A    between atoms: C_8  and  C_10 
REMARK    9  A    between atoms: C_9  and  C_11 
REMARK   10  A    between atoms: C_10  and  C_12 
REMARK   11  A    between atoms: C_11  and  C_13 
REMARK   12  A    between atoms: C_12  and  C_14 
REMARK   13  A    between atoms: C_13  and  C_15 
REMARK   14  A    between atoms: C_14  and  C_16 
REMARK   15  A    between atoms: C_15  and  C_17 
REMARK   16  A    between atoms: C_16  and  C_18 
REMARK   17  A    between atoms: C_18  and  C_20 
ROOT
HETATM    1  O   UNL     1     -36.434  -5.960 -16.015  1.00  0.00    -0.776 OA
HETATM    2  H   UNL     1     -36.092  -6.821 -15.736  1.00  0.00     0.167 HD
ENDROOT
BRANCH   1   3
HETATM    3  C   UNL     1     -37.072  -5.141 -15.153  1.00  0.00     0.139 C 
HETATM    4  O   UNL     1     -37.130  -3.943 -15.386  1.00  0.00    -0.650 OA
BRANCH   3   5
HETATM    5  C   UNL     1     -37.676  -5.686 -13.885  1.00  0.00     0.110 C 
BRANCH   5   6
HETATM    6  C   UNL     1     -37.720  -4.664 -12.734  1.00  0.00     0.010 C 
BRANCH   6   7
HETATM    7  C   UNL     1     -36.995  -5.079 -11.438  1.00  0.00     0.001 C 
BRANCH   7   8
HETATM    8  C   UNL     1     -36.733  -6.592 -11.296  1.00  0.00     0.000 C 
BRANCH   8   9
HETATM    9  C   UNL     1     -35.266  -6.979 -11.021  1.00  0.00     0.000 C 
BRANCH   9  10
HETATM   10  C   UNL     1     -35.075  -8.196 -10.095  1.00  0.00     0.000 C 
BRANCH  10  11
HETATM   11  C   UNL     1     -34.450  -7.879  -8.721  1.00  0.00     0.000 C 
BRANCH  11  12
HETATM   12  C   UNL     1     -35.445  -7.403  -7.646  1.00  0.00     0.000 C 
BRANCH  12  13
HETATM   13  C   UNL     1     -36.915  -7.799  -7.894  1.00  0.00     0.000 C 
BRANCH  13  14
HETATM   14  C   UNL     1     -37.940  -6.668  -7.679  1.00  0.00     0.000 C 
BRANCH  14  15
HETATM   15  C   UNL     1     -37.374  -5.240  -7.812  1.00  0.00     0.000 C 
BRANCH  15  16
HETATM   16  C   UNL     1     -37.761  -4.276  -6.673  1.00  0.00     0.000 C 
BRANCH  16  17
HETATM   17  C   UNL     1     -38.327  -4.952  -5.409  1.00  0.00     0.000 C 
BRANCH  17  18
HETATM   18  C   UNL     1     -37.269  -5.427  -4.393  1.00  0.00     0.000 C 
BRANCH  18  19
HETATM   19  C   UNL     1     -37.827  -6.225  -3.196  1.00  0.00    -0.000 C 
BRANCH  19  20
HETATM   20  C   UNL     1     -38.058  -7.725  -3.460  1.00  0.00    -0.005 C 
HETATM   21  C   UNL     1     -36.907  -8.388  -4.216  1.00  0.00     0.005 C 
ENDBRANCH  19  20
ENDBRANCH  18  19
ENDBRANCH  17  18
ENDBRANCH  16  17
ENDBRANCH  15  16
ENDBRANCH  14  15
ENDBRANCH  13  14
ENDBRANCH  12  13
ENDBRANCH  11  12
ENDBRANCH  10  11
ENDBRANCH   9  10
ENDBRANCH   8   9
ENDBRANCH   7   8
ENDBRANCH   6   7
ENDBRANCH   5   6
ENDBRANCH   3   5
ENDBRANCH   1   3
TORSDOF 17
ENDMDL
MODEL 10
REMARK VINA RESULT:      -4.7     58.343     59.356
REMARK  17 active torsions:
REMARK  status: ('A' for Active; 'I' for Inactive)
REMARK    1  A    between atoms: O_1  and  C_20 
REMARK    2  A    between atoms: C_3  and  C_4 
REMARK    3  A    between atoms: C_3  and  C_5 
REMARK    4  A    between atoms: C_4  and  C_6 
REMARK    5  A    between atoms: C_5  and  C_7 
REMARK    6  A    between atoms: C_6  and  C_8 
REMARK    7  A    between atoms: C_7  and  C_9 
REMARK    8  A    between atoms: C_8  and  C_10 
REMARK    9  A    between atoms: C_9  and  C_11 
REMARK   10  A    between atoms: C_10  and  C_12 
REMARK   11  A    between atoms: C_11  and  C_13 
REMARK   12  A    between atoms: C_12  and  C_14 
REMARK   13  A    between atoms: C_13  and  C_15 
REMARK   14  A    between atoms: C_14  and  C_16 
REMARK   15  A    between atoms: C_15  and  C_17 
REMARK   16  A    between atoms: C_16  and  C_18 
REMARK   17  A    between atoms: C_18  and  C_20 
ROOT
HETATM    1  O   UNL     1     -54.342  19.356 -12.807  1.00  0.00    -0.776 OA
HETATM    2  H   UNL     1     -54.398  19.198 -13.759  1.00  0.00     0.167 HD
ENDROOT
BRANCH   1   3
HETATM    3  C   UNL     1     -55.052  20.336 -12.210  1.00  0.00     0.139 C 
HETATM    4  O   UNL     1     -56.269  20.355 -12.319  1.00  0.00    -0.650 OA
BRANCH   3   5
HETATM    5  C   UNL     1     -54.352  21.431 -11.448  1.00  0.00     0.110 C 
BRANCH   5   6
HETATM    6  C   UNL     1     -53.677  22.478 -12.352  1.00  0.00     0.010 C 
BRANCH   6   7
HETATM    7  C   UNL     1     -52.139  22.405 -12.433  1.00  0.00     0.001 C 
BRANCH   7   8
HETATM    8  C   UNL     1     -51.572  22.181 -13.849  1.00  0.00     0.000 C 
BRANCH   8   9
HETATM    9  C   UNL     1     -51.788  20.767 -14.424  1.00  0.00     0.000 C 
BRANCH   9  10
HETATM   10  C   UNL     1     -52.646  20.707 -15.703  1.00  0.00     0.000 C 
BRANCH  10  11
HETATM   11  C   UNL     1     -53.992  21.455 -15.622  1.00  0.00     0.000 C 
BRANCH  11  12
HETATM   12  C   UNL     1     -54.713  21.650 -16.970  1.00  0.00     0.000 C 
BRANCH  12  13
HETATM   13  C   UNL     1     -54.360  20.613 -18.056  1.00  0.00     0.000 C 
BRANCH  13  14
HETATM   14  C   UNL     1     -53.662  21.191 -19.304  1.00  0.00     0.000 C 
BRANCH  14  15
HETATM   15  C   UNL     1     -52.134  20.993 -19.349  1.00  0.00     0.000 C 
BRANCH  15  16
HETATM   16  C   UNL     1     -51.304  22.245 -19.005  1.00  0.00     0.000 C 
BRANCH  16  17
HETATM   17  C   UNL     1     -51.902  23.579 -19.493  1.00  0.00     0.000 C 
BRANCH  17  18
HETATM   18  C   UNL     1     -52.350  24.542 -18.375  1.00  0.00     0.000 C 
BRANCH  18  19
HETATM   19  C   UNL     1     -51.867  24.167 -16.959  1.00  0.00    -0.000 C 
BRANCH  19  20
HETATM   20  C   UNL     1     -52.134  25.226 -15.873  1.00  0.00    -0.005 C 
HETATM   21  C   UNL     1     -53.509  25.086 -15.221  1.00  0.00     0.005 C 
ENDBRANCH  19  20
ENDBRANCH  18  19
ENDBRANCH  17  18
ENDBRANCH  16  17
ENDBRANCH  15  16
ENDBRANCH  14  15
ENDBRANCH  13  14
ENDBRANCH  12  13
ENDBRANCH  11  12
ENDBRANCH  10  11
ENDBRANCH   9  10
ENDBRANCH   8   9
ENDBRANCH   7   8
ENDBRANCH   6   7
ENDBRANCH   5   6
ENDBRANCH   3   5
ENDBRANCH   1   3
TORSDOF 17
ENDMDL
MODEL 11
REMARK VINA RESULT:      -4.7     34.125     34.797
REMARK  17 active torsions:
REMARK  status: ('A' for Active; 'I' for Inactive)
REMARK    1  A    between atoms: O_1  and  C_20 
REMARK    2  A    between atoms: C_3  and  C_4 
REMARK    3  A    between atoms: C_3  and  C_5 
REMARK    4  A    between atoms: C_4  and  C_6 
REMARK    5  A    between atoms: C_5  and  C_7 
REMARK    6  A    between atoms: C_6  and  C_8 
REMARK    7  A    between atoms: C_7  and  C_9 
REMARK    8  A    between atoms: C_8  and  C_10 
REMARK    9  A    between atoms: C_9  and  C_11 
REMARK   10  A    between atoms: C_10  and  C_12 
REMARK   11  A    between atoms: C_11  and  C_13 
REMARK   12  A    between atoms: C_12  and  C_14 
REMARK   13  A    between atoms: C_13  and  C_15 
REMARK   14  A    between atoms: C_14  and  C_16 
REMARK   15  A    between atoms: C_15  and  C_17 
REMARK   16  A    between atoms: C_16  and  C_18 
REMARK   17  A    between atoms: C_18  and  C_20 
ROOT
HETATM    1  O   UNL     1     -37.419  -3.556 -20.714  1.00  0.00    -0.776 OA
HETATM    2  H   UNL     1     -37.206  -2.921 -20.016  1.00  0.00     0.167 HD
ENDROOT
BRANCH   1   3
HETATM    3  C   UNL     1     -37.294  -4.885 -20.522  1.00  0.00     0.139 C 
HETATM    4  O   UNL     1     -36.197  -5.413 -20.629  1.00  0.00    -0.650 OA
BRANCH   3   5
HETATM    5  C   UNL     1     -38.503  -5.730 -20.219  1.00  0.00     0.110 C 
BRANCH   5   6
HETATM    6  C   UNL     1     -38.157  -7.126 -19.666  1.00  0.00     0.010 C 
BRANCH   6   7
HETATM    7  C   UNL     1     -38.752  -7.468 -18.284  1.00  0.00     0.001 C 
BRANCH   7   8
HETATM    8  C   UNL     1     -37.736  -7.478 -17.124  1.00  0.00     0.000 C 
BRANCH   8   9
HETATM    9  C   UNL     1     -36.857  -6.217 -17.013  1.00  0.00     0.000 C 
BRANCH   9  10
HETATM   10  C   UNL     1     -37.626  -4.902 -16.778  1.00  0.00     0.000 C 
BRANCH  10  11
HETATM   11  C   UNL     1     -38.107  -4.678 -15.329  1.00  0.00     0.000 C 
BRANCH  11  12
HETATM   12  C   UNL     1     -37.156  -5.204 -14.237  1.00  0.00     0.000 C 
BRANCH  12  13
HETATM   13  C   UNL     1     -37.840  -5.976 -13.091  1.00  0.00     0.000 C 
BRANCH  13  14
HETATM   14  C   UNL     1     -37.187  -5.798 -11.705  1.00  0.00     0.000 C 
BRANCH  14  15
HETATM   15  C   UNL     1     -37.818  -4.702 -10.822  1.00  0.00     0.000 C 
BRANCH  15  16
HETATM   16  C   UNL     1     -37.746  -4.965  -9.305  1.00  0.00     0.000 C 
BRANCH  16  17
HETATM   17  C   UNL     1     -36.935  -6.211  -8.896  1.00  0.00     0.000 C 
BRANCH  17  18
HETATM   18  C   UNL     1     -37.149  -6.682  -7.444  1.00  0.00     0.000 C 
BRANCH  18  19
HETATM   19  C   UNL     1     -36.052  -6.248  -6.449  1.00  0.00    -0.000 C 
BRANCH  19  20
HETATM   20  C   UNL     1     -34.885  -7.240  -6.288  1.00  0.00    -0.005 C 
HETATM   21  C   UNL     1     -35.282  -8.524  -5.560  1.00  0.00     0.005 C 
ENDBRANCH  19  20
ENDBRANCH  18  19
ENDBRANCH  17  18
ENDBRANCH  16  17
ENDBRANCH  15  16
ENDBRANCH  14  15
ENDBRANCH  13  14
ENDBRANCH  12  13
ENDBRANCH  11  12
ENDBRANCH  10  11
ENDBRANCH   9  10
ENDBRANCH   8   9
ENDBRANCH   7   8
ENDBRANCH   6   7
ENDBRANCH   5   6
ENDBRANCH   3   5
ENDBRANCH   1   3
TORSDOF 17
ENDMDL
MODEL 12
REMARK VINA RESULT:      -4.7     33.184     34.011
REMARK  17 active torsions:
REMARK  status: ('A' for Active; 'I' for Inactive)
REMARK    1  A    between atoms: O_1  and  C_20 
REMARK    2  A    between atoms: C_3  and  C_4 
REMARK    3  A    between atoms: C_3  and  C_5 
REMARK    4  A    between atoms: C_4  and  C_6 
REMARK    5  A    between atoms: C_5  and  C_7 
REMARK    6  A    between atoms: C_6  and  C_8 
REMARK    7  A    between atoms: C_7  and  C_9 
REMARK    8  A    between atoms: C_8  and  C_10 
REMARK    9  A    between atoms: C_9  and  C_11 
REMARK   10  A    between atoms: C_10  and  C_12 
REMARK   11  A    between atoms: C_11  and  C_13 
REMARK   12  A    between atoms: C_12  and  C_14 
REMARK   13  A    between atoms: C_13  and  C_15 
REMARK   14  A    between atoms: C_14  and  C_16 
REMARK   15  A    between atoms: C_15  and  C_17 
REMARK   16  A    between atoms: C_16  and  C_18 
REMARK   17  A    between atoms: C_18  and  C_20 
ROOT
HETATM    1  O   UNL     1     -33.318  -7.924 -14.476  1.00  0.00    -0.776 OA
HETATM    2  H   UNL     1     -33.305  -8.299 -13.584  1.00  0.00     0.167 HD
ENDROOT
BRANCH   1   3
HETATM    3  C   UNL     1     -34.349  -8.143 -15.318  1.00  0.00     0.139 C 
HETATM    4  O   UNL     1     -34.666  -9.289 -15.603  1.00  0.00    -0.650 OA
BRANCH   3   5
HETATM    5  C   UNL     1     -35.085  -6.987 -15.942  1.00  0.00     0.110 C 
BRANCH   5   6
HETATM    6  C   UNL     1     -36.263  -7.416 -16.837  1.00  0.00     0.010 C 
BRANCH   6   7
HETATM    7  C   UNL     1     -37.134  -6.273 -17.396  1.00  0.00     0.001 C 
BRANCH   7   8
HETATM    8  C   UNL     1     -37.229  -5.027 -16.494  1.00  0.00     0.000 C 
BRANCH   8   9
HETATM    9  C   UNL     1     -38.193  -5.157 -15.298  1.00  0.00     0.000 C 
BRANCH   9  10
HETATM   10  C   UNL     1     -37.556  -4.907 -13.916  1.00  0.00     0.000 C 
BRANCH  10  11
HETATM   11  C   UNL     1     -37.831  -6.000 -12.863  1.00  0.00     0.000 C 
BRANCH  11  12
HETATM   12  C   UNL     1     -36.610  -6.859 -12.481  1.00  0.00     0.000 C 
BRANCH  12  13
HETATM   13  C   UNL     1     -35.892  -6.434 -11.183  1.00  0.00     0.000 C 
BRANCH  13  14
HETATM   14  C   UNL     1     -36.739  -6.558  -9.901  1.00  0.00     0.000 C 
BRANCH  14  15
HETATM   15  C   UNL     1     -37.255  -5.223  -9.327  1.00  0.00     0.000 C 
BRANCH  15  16
HETATM   16  C   UNL     1     -37.688  -5.272  -7.848  1.00  0.00     0.000 C 
BRANCH  16  17
HETATM   17  C   UNL     1     -37.194  -6.504  -7.064  1.00  0.00     0.000 C 
BRANCH  17  18
HETATM   18  C   UNL     1     -35.995  -6.246  -6.130  1.00  0.00     0.000 C 
BRANCH  18  19
HETATM   19  C   UNL     1     -34.720  -7.045  -6.469  1.00  0.00    -0.000 C 
BRANCH  19  20
HETATM   20  C   UNL     1     -34.898  -8.142  -7.535  1.00  0.00    -0.005 C 
HETATM   21  C   UNL     1     -34.898  -9.554  -6.952  1.00  0.00     0.005 C 
ENDBRANCH  19  20
ENDBRANCH  18  19
ENDBRANCH  17  18
ENDBRANCH  16  17
ENDBRANCH  15  16
ENDBRANCH  14  15
ENDBRANCH  13  14
ENDBRANCH  12  13
ENDBRANCH  11  12
ENDBRANCH  10  11
ENDBRANCH   9  10
ENDBRANCH   8   9
ENDBRANCH   7   8
ENDBRANCH   6   7
ENDBRANCH   5   6
ENDBRANCH   3   5
ENDBRANCH   1   3
TORSDOF 17
ENDMDL
MODEL 13
REMARK VINA RESULT:      -4.7     34.192     35.217
REMARK  17 active torsions:
REMARK  status: ('A' for Active; 'I' for Inactive)
REMARK    1  A    between atoms: O_1  and  C_20 
REMARK    2  A    between atoms: C_3  and  C_4 
REMARK    3  A    between atoms: C_3  and  C_5 
REMARK    4  A    between atoms: C_4  and  C_6 
REMARK    5  A    between atoms: C_5  and  C_7 
REMARK    6  A    between atoms: C_6  and  C_8 
REMARK    7  A    between atoms: C_7  and  C_9 
REMARK    8  A    between atoms: C_8  and  C_10 
REMARK    9  A    between atoms: C_9  and  C_11 
REMARK   10  A    between atoms: C_10  and  C_12 
REMARK   11  A    between atoms: C_11  and  C_13 
REMARK   12  A    between atoms: C_12  and  C_14 
REMARK   13  A    between atoms: C_13  and  C_15 
REMARK   14  A    between atoms: C_14  and  C_16 
REMARK   15  A    between atoms: C_15  and  C_17 
REMARK   16  A    between atoms: C_16  and  C_18 
REMARK   17  A    between atoms: C_18  and  C_20 
ROOT
HETATM    1  O   UNL     1     -37.610  -4.561 -18.311  1.00  0.00    -0.776 OA
HETATM    2  H   UNL     1     -37.694  -5.332 -18.888  1.00  0.00     0.167 HD
ENDROOT
BRANCH   1   3
HETATM    3  C   UNL     1     -37.616  -4.680 -16.967  1.00  0.00     0.139 C 
HETATM    4  O   UNL     1     -37.640  -3.677 -16.269  1.00  0.00    -0.650 OA
BRANCH   3   5
HETATM    5  C   UNL     1     -37.551  -6.039 -16.320  1.00  0.00     0.110 C 
BRANCH   5   6
HETATM    6  C   UNL     1     -38.257  -6.105 -14.953  1.00  0.00     0.010 C 
BRANCH   6   7
HETATM    7  C   UNL     1     -37.335  -6.252 -13.726  1.00  0.00     0.001 C 
BRANCH   7   8
HETATM    8  C   UNL     1     -36.616  -7.611 -13.612  1.00  0.00     0.000 C 
BRANCH   8   9
HETATM    9  C   UNL     1     -35.151  -7.539 -13.136  1.00  0.00     0.000 C 
BRANCH   9  10
HETATM   10  C   UNL     1     -34.963  -7.131 -11.661  1.00  0.00     0.000 C 
BRANCH  10  11
HETATM   11  C   UNL     1     -34.797  -8.306 -10.676  1.00  0.00     0.000 C 
BRANCH  11  12
HETATM   12  C   UNL     1     -34.581  -7.899  -9.205  1.00  0.00     0.000 C 
BRANCH  12  13
HETATM   13  C   UNL     1     -35.800  -8.107  -8.283  1.00  0.00     0.000 C 
BRANCH  13  14
HETATM   14  C   UNL     1     -36.127  -6.918  -7.359  1.00  0.00     0.000 C 
BRANCH  14  15
HETATM   15  C   UNL     1     -37.506  -6.268  -7.594  1.00  0.00     0.000 C 
BRANCH  15  16
HETATM   16  C   UNL     1     -37.524  -5.136  -8.640  1.00  0.00     0.000 C 
BRANCH  16  17
HETATM   17  C   UNL     1     -37.933  -5.568 -10.062  1.00  0.00     0.000 C 
BRANCH  17  18
HETATM   18  C   UNL     1     -39.084  -6.591 -10.127  1.00  0.00     0.000 C 
BRANCH  18  19
HETATM   19  C   UNL     1     -38.697  -7.973 -10.694  1.00  0.00    -0.000 C 
BRANCH  19  20
HETATM   20  C   UNL     1     -39.691  -8.567 -11.710  1.00  0.00    -0.005 C 
HETATM   21  C   UNL     1     -40.715  -9.505 -11.073  1.00  0.00     0.005 C 
ENDBRANCH  19  20
ENDBRANCH  18  19
ENDBRANCH  17  18
ENDBRANCH  16  17
ENDBRANCH  15  16
ENDBRANCH  14  15
ENDBRANCH  13  14
ENDBRANCH  12  13
ENDBRANCH  11  12
ENDBRANCH  10  11
ENDBRANCH   9  10
ENDBRANCH   8   9
ENDBRANCH   7   8
ENDBRANCH   6   7
ENDBRANCH   5   6
ENDBRANCH   3   5
ENDBRANCH   1   3
TORSDOF 17
ENDMDL
MODEL 14
REMARK VINA RESULT:      -4.7     33.543     35.297
REMARK  17 active torsions:
REMARK  status: ('A' for Active; 'I' for Inactive)
REMARK    1  A    between atoms: O_1  and  C_20 
REMARK    2  A    between atoms: C_3  and  C_4 
REMARK    3  A    between atoms: C_3  and  C_5 
REMARK    4  A    between atoms: C_4  and  C_6 
REMARK    5  A    between atoms: C_5  and  C_7 
REMARK    6  A    between atoms: C_6  and  C_8 
REMARK    7  A    between atoms: C_7  and  C_9 
REMARK    8  A    between atoms: C_8  and  C_10 
REMARK    9  A    between atoms: C_9  and  C_11 
REMARK   10  A    between atoms: C_10  and  C_12 
REMARK   11  A    between atoms: C_11  and  C_13 
REMARK   12  A    between atoms: C_12  and  C_14 
REMARK   13  A    between atoms: C_13  and  C_15 
REMARK   14  A    between atoms: C_14  and  C_16 
REMARK   15  A    between atoms: C_15  and  C_17 
REMARK   16  A    between atoms: C_16  and  C_18 
REMARK   17  A    between atoms: C_18  and  C_20 
ROOT
HETATM    1  O   UNL     1     -35.746  -8.327 -15.692  1.00  0.00    -0.776 OA
HETATM    2  H   UNL     1     -35.477  -7.471 -16.051  1.00  0.00     0.167 HD
ENDROOT
BRANCH   1   3
HETATM    3  C   UNL     1     -34.842  -9.214 -15.227  1.00  0.00     0.139 C 
HETATM    4  O   UNL     1     -34.203  -9.897 -16.013  1.00  0.00    -0.650 OA
BRANCH   3   5
HETATM    5  C   UNL     1     -34.644  -9.397 -13.745  1.00  0.00     0.110 C 
BRANCH   5   6
HETATM    6  C   UNL     1     -35.431  -8.388 -12.888  1.00  0.00     0.010 C 
BRANCH   6   7
HETATM    7  C   UNL     1     -34.583  -7.459 -11.996  1.00  0.00     0.001 C 
BRANCH   7   8
HETATM    8  C   UNL     1     -35.089  -7.311 -10.547  1.00  0.00     0.000 C 
BRANCH   8   9
HETATM    9  C   UNL     1     -36.604  -7.525 -10.357  1.00  0.00     0.000 C 
BRANCH   9  10
HETATM   10  C   UNL     1     -37.241  -6.709  -9.215  1.00  0.00     0.000 C 
BRANCH  10  11
HETATM   11  C   UNL     1     -37.923  -5.397  -9.653  1.00  0.00     0.000 C 
BRANCH  11  12
HETATM   12  C   UNL     1     -37.111  -4.537 -10.640  1.00  0.00     0.000 C 
BRANCH  12  13
HETATM   13  C   UNL     1     -37.813  -4.244 -11.982  1.00  0.00     0.000 C 
BRANCH  13  14
HETATM   14  C   UNL     1     -37.435  -5.195 -13.136  1.00  0.00     0.000 C 
BRANCH  14  15
HETATM   15  C   UNL     1     -37.746  -4.662 -14.549  1.00  0.00     0.000 C 
BRANCH  15  16
HETATM   16  C   UNL     1     -38.160  -5.736 -15.574  1.00  0.00     0.000 C 
BRANCH  16  17
HETATM   17  C   UNL     1     -37.311  -5.772 -16.861  1.00  0.00     0.000 C 
BRANCH  17  18
HETATM   18  C   UNL     1     -37.725  -4.756 -17.945  1.00  0.00     0.000 C 
BRANCH  18  19
HETATM   19  C   UNL     1     -37.725  -5.306 -19.386  1.00  0.00    -0.000 C 
BRANCH  19  20
HETATM   20  C   UNL     1     -37.349  -4.285 -20.477  1.00  0.00    -0.005 C 
HETATM   21  C   UNL     1     -37.563  -4.812 -21.895  1.00  0.00     0.005 C 
ENDBRANCH  19  20
ENDBRANCH  18  19
ENDBRANCH  17  18
ENDBRANCH  16  17
ENDBRANCH  15  16
ENDBRANCH  14  15
ENDBRANCH  13  14
ENDBRANCH  12  13
ENDBRANCH  11  12
ENDBRANCH  10  11
ENDBRANCH   9  10
ENDBRANCH   8   9
ENDBRANCH   7   8
ENDBRANCH   6   7
ENDBRANCH   5   6
ENDBRANCH   3   5
ENDBRANCH   1   3
TORSDOF 17
ENDMDL
MODEL 15
REMARK VINA RESULT:      -4.6     33.777     35.222
REMARK  17 active torsions:
REMARK  status: ('A' for Active; 'I' for Inactive)
REMARK    1  A    between atoms: O_1  and  C_20 
REMARK    2  A    between atoms: C_3  and  C_4 
REMARK    3  A    between atoms: C_3  and  C_5 
REMARK    4  A    between atoms: C_4  and  C_6 
REMARK    5  A    between atoms: C_5  and  C_7 
REMARK    6  A    between atoms: C_6  and  C_8 
REMARK    7  A    between atoms: C_7  and  C_9 
REMARK    8  A    between atoms: C_8  and  C_10 
REMARK    9  A    between atoms: C_9  and  C_11 
REMARK   10  A    between atoms: C_10  and  C_12 
REMARK   11  A    between atoms: C_11  and  C_13 
REMARK   12  A    between atoms: C_12  and  C_14 
REMARK   13  A    between atoms: C_13  and  C_15 
REMARK   14  A    between atoms: C_14  and  C_16 
REMARK   15  A    between atoms: C_15  and  C_17 
REMARK   16  A    between atoms: C_16  and  C_18 
REMARK   17  A    between atoms: C_18  and  C_20 
ROOT
HETATM    1  O   UNL     1     -39.941  -9.625 -19.059  1.00  0.00    -0.776 OA
HETATM    2  H   UNL     1     -39.441 -10.155 -19.694  1.00  0.00     0.167 HD
ENDROOT
BRANCH   1   3
HETATM    3  C   UNL     1     -39.363  -8.617 -18.371  1.00  0.00     0.139 C 
HETATM    4  O   UNL     1     -39.736  -8.368 -17.234  1.00  0.00    -0.650 OA
BRANCH   3   5
HETATM    5  C   UNL     1     -38.293  -7.772 -19.009  1.00  0.00     0.110 C 
BRANCH   5   6
HETATM    6  C   UNL     1     -38.784  -6.376 -19.439  1.00  0.00     0.010 C 
BRANCH   6   7
HETATM    7  C   UNL     1     -37.764  -5.229 -19.289  1.00  0.00     0.001 C 
BRANCH   7   8
HETATM    8  C   UNL     1     -36.896  -4.964 -20.535  1.00  0.00     0.000 C 
BRANCH   8   9
HETATM    9  C   UNL     1     -37.670  -4.507 -21.787  1.00  0.00     0.000 C 
BRANCH   9  10
HETATM   10  C   UNL     1     -37.469  -5.386 -23.037  1.00  0.00     0.000 C 
BRANCH  10  11
HETATM   11  C   UNL     1     -37.419  -6.904 -22.766  1.00  0.00     0.000 C 
BRANCH  11  12
HETATM   12  C   UNL     1     -36.158  -7.619 -23.289  1.00  0.00     0.000 C 
BRANCH  12  13
HETATM   13  C   UNL     1     -34.938  -7.567 -22.346  1.00  0.00     0.000 C 
BRANCH  13  14
HETATM   14  C   UNL     1     -35.117  -8.312 -21.008  1.00  0.00     0.000 C 
BRANCH  14  15
HETATM   15  C   UNL     1     -34.572  -7.572 -19.771  1.00  0.00     0.000 C 
BRANCH  15  16
HETATM   16  C   UNL     1     -34.709  -8.336 -18.439  1.00  0.00     0.000 C 
BRANCH  16  17
HETATM   17  C   UNL     1     -34.767  -7.449 -17.180  1.00  0.00     0.000 C 
BRANCH  17  18
HETATM   18  C   UNL     1     -35.903  -7.787 -16.194  1.00  0.00     0.000 C 
BRANCH  18  19
HETATM   19  C   UNL     1     -36.230  -6.679 -15.172  1.00  0.00    -0.000 C 
BRANCH  19  20
HETATM   20  C   UNL     1     -37.467  -5.825 -15.505  1.00  0.00    -0.005 C 
HETATM   21  C   UNL     1     -37.126  -4.371 -15.831  1.00  0.00     0.005 C 
ENDBRANCH  19  20
ENDBRANCH  18  19
ENDBRANCH  17  18
ENDBRANCH  16  17
ENDBRANCH  15  16
ENDBRANCH  14  15
ENDBRANCH  13  14
ENDBRANCH  12  13
ENDBRANCH  11  12
ENDBRANCH  10  11
ENDBRANCH   9  10
ENDBRANCH   8   9
ENDBRANCH   7   8
ENDBRANCH   6   7
ENDBRANCH   5   6
ENDBRANCH   3   5
ENDBRANCH   1   3
TORSDOF 17
ENDMDL
MODEL 16
REMARK VINA RESULT:      -4.6     57.488     59.016
REMARK  17 active torsions:
REMARK  status: ('A' for Active; 'I' for Inactive)
REMARK    1  A    between atoms: O_1  and  C_20 
REMARK    2  A    between atoms: C_3  and  C_4 
REMARK    3  A    between atoms: C_3  and  C_5 
REMARK    4  A    between atoms: C_4  and  C_6 
REMARK    5  A    between atoms: C_5  and  C_7 
REMARK    6  A    between atoms: C_6  and  C_8 
REMARK    7  A    between atoms: C_7  and  C_9 
REMARK    8  A    between atoms: C_8  and  C_10 
REMARK    9  A    between atoms: C_9  and  C_11 
REMARK   10  A    between atoms: C_10  and  C_12 
REMARK   11  A    between atoms: C_11  and  C_13 
REMARK   12  A    between atoms: C_12  and  C_14 
REMARK   13  A    between atoms: C_13  and  C_15 
REMARK   14  A    between atoms: C_14  and  C_16 
REMARK   15  A    between atoms: C_15  and  C_17 
REMARK   16  A    between atoms: C_16  and  C_18 
REMARK   17  A    between atoms: C_18  and  C_20 
ROOT
HETATM    1  O   UNL     1     -55.599  20.013  -7.426  1.00  0.00    -0.776 OA
HETATM    2  H   UNL     1     -55.572  19.046  -7.423  1.00  0.00     0.167 HD
ENDROOT
BRANCH   1   3
HETATM    3  C   UNL     1     -54.487  20.750  -7.629  1.00  0.00     0.139 C 
HETATM    4  O   UNL     1     -54.584  21.953  -7.818  1.00  0.00    -0.650 OA
BRANCH   3   5
HETATM    5  C   UNL     1     -53.132  20.094  -7.667  1.00  0.00     0.110 C 
BRANCH   5   6
HETATM    6  C   UNL     1     -52.090  20.878  -8.487  1.00  0.00     0.010 C 
BRANCH   6   7
HETATM    7  C   UNL     1     -52.072  20.590 -10.002  1.00  0.00     0.001 C 
BRANCH   7   8
HETATM    8  C   UNL     1     -52.816  21.625 -10.869  1.00  0.00     0.000 C 
BRANCH   8   9
HETATM    9  C   UNL     1     -53.038  21.211 -12.338  1.00  0.00     0.000 C 
BRANCH   9  10
HETATM   10  C   UNL     1     -52.344  19.900 -12.758  1.00  0.00     0.000 C 
BRANCH  10  11
HETATM   11  C   UNL     1     -52.189  19.703 -14.280  1.00  0.00     0.000 C 
BRANCH  11  12
HETATM   12  C   UNL     1     -52.283  20.993 -15.118  1.00  0.00     0.000 C 
BRANCH  12  13
HETATM   13  C   UNL     1     -53.621  21.194 -15.859  1.00  0.00     0.000 C 
BRANCH  13  14
HETATM   14  C   UNL     1     -53.711  20.509 -17.237  1.00  0.00     0.000 C 
BRANCH  14  15
HETATM   15  C   UNL     1     -52.491  19.647 -17.619  1.00  0.00     0.000 C 
BRANCH  15  16
HETATM   16  C   UNL     1     -51.936  19.892 -19.036  1.00  0.00     0.000 C 
BRANCH  16  17
HETATM   17  C   UNL     1     -52.041  21.347 -19.536  1.00  0.00     0.000 C 
BRANCH  17  18
HETATM   18  C   UNL     1     -53.013  21.565 -20.712  1.00  0.00     0.000 C 
BRANCH  18  19
HETATM   19  C   UNL     1     -52.379  21.441 -22.113  1.00  0.00    -0.000 C 
BRANCH  19  20
HETATM   20  C   UNL     1     -52.787  20.188 -22.909  1.00  0.00    -0.005 C 
HETATM   21  C   UNL     1     -52.194  20.148 -24.317  1.00  0.00     0.005 C 
ENDBRANCH  19  20
ENDBRANCH  18  19
ENDBRANCH  17  18
ENDBRANCH  16  17
ENDBRANCH  15  16
ENDBRANCH  14  15
ENDBRANCH  13  14
ENDBRANCH  12  13
ENDBRANCH  11  12
ENDBRANCH  10  11
ENDBRANCH   9  10
ENDBRANCH   8   9
ENDBRANCH   7   8
ENDBRANCH   6   7
ENDBRANCH   5   6
ENDBRANCH   3   5
ENDBRANCH   1   3
TORSDOF 17
ENDMDL
MODEL 17
REMARK VINA RESULT:      -4.6     57.933     59.595
REMARK  17 active torsions:
REMARK  status: ('A' for Active; 'I' for Inactive)
REMARK    1  A    between atoms: O_1  and  C_20 
REMARK    2  A    between atoms: C_3  and  C_4 
REMARK    3  A    between atoms: C_3  and  C_5 
REMARK    4  A    between atoms: C_4  and  C_6 
REMARK    5  A    between atoms: C_5  and  C_7 
REMARK    6  A    between atoms: C_6  and  C_8 
REMARK    7  A    between atoms: C_7  and  C_9 
REMARK    8  A    between atoms: C_8  and  C_10 
REMARK    9  A    between atoms: C_9  and  C_11 
REMARK   10  A    between atoms: C_10  and  C_12 
REMARK   11  A    between atoms: C_11  and  C_13 
REMARK   12  A    between atoms: C_12  and  C_14 
REMARK   13  A    between atoms: C_13  and  C_15 
REMARK   14  A    between atoms: C_14  and  C_16 
REMARK   15  A    between atoms: C_15  and  C_17 
REMARK   16  A    between atoms: C_16  and  C_18 
REMARK   17  A    between atoms: C_18  and  C_20 
ROOT
HETATM    1  O   UNL     1     -53.794  19.269 -12.755  1.00  0.00    -0.776 OA
HETATM    2  H   UNL     1     -53.966  18.529 -13.353  1.00  0.00     0.167 HD
ENDROOT
BRANCH   1   3
HETATM    3  C   UNL     1     -54.645  20.311 -12.658  1.00  0.00     0.139 C 
HETATM    4  O   UNL     1     -55.850  20.108 -12.628  1.00  0.00    -0.650 OA
BRANCH   3   5
HETATM    5  C   UNL     1     -54.124  21.724 -12.628  1.00  0.00     0.110 C 
BRANCH   5   6
HETATM    6  C   UNL     1     -53.260  22.088 -13.849  1.00  0.00     0.010 C 
BRANCH   6   7
HETATM    7  C   UNL     1     -53.794  21.614 -15.216  1.00  0.00     0.001 C 
BRANCH   7   8
HETATM    8  C   UNL     1     -52.813  20.749 -16.033  1.00  0.00     0.000 C 
BRANCH   8   9
HETATM    9  C   UNL     1     -53.299  20.365 -17.445  1.00  0.00     0.000 C 
BRANCH   9  10
HETATM   10  C   UNL     1     -54.227  21.395 -18.118  1.00  0.00     0.000 C 
BRANCH  10  11
HETATM   11  C   UNL     1     -53.579  22.214 -19.254  1.00  0.00     0.000 C 
BRANCH  11  12
HETATM   12  C   UNL     1     -53.316  21.431 -20.555  1.00  0.00     0.000 C 
BRANCH  12  13
HETATM   13  C   UNL     1     -54.547  21.243 -21.465  1.00  0.00     0.000 C 
BRANCH  13  14
HETATM   14  C   UNL     1     -54.299  20.397 -22.730  1.00  0.00     0.000 C 
BRANCH  14  15
HETATM   15  C   UNL     1     -53.022  19.533 -22.697  1.00  0.00     0.000 C 
BRANCH  15  16
HETATM   16  C   UNL     1     -51.919  19.959 -23.685  1.00  0.00     0.000 C 
BRANCH  16  17
HETATM   17  C   UNL     1     -52.407  20.789 -24.889  1.00  0.00     0.000 C 
BRANCH  17  18
HETATM   18  C   UNL     1     -51.968  22.267 -24.885  1.00  0.00     0.000 C 
BRANCH  18  19
HETATM   19  C   UNL     1     -51.536  22.815 -23.509  1.00  0.00    -0.000 C 
BRANCH  19  20
HETATM   20  C   UNL     1     -51.735  24.329 -23.314  1.00  0.00    -0.005 C 
HETATM   21  C   UNL     1     -52.887  24.669 -22.369  1.00  0.00     0.005 C 
ENDBRANCH  19  20
ENDBRANCH  18  19
ENDBRANCH  17  18
ENDBRANCH  16  17
ENDBRANCH  15  16
ENDBRANCH  14  15
ENDBRANCH  13  14
ENDBRANCH  12  13
ENDBRANCH  11  12
ENDBRANCH  10  11
ENDBRANCH   9  10
ENDBRANCH   8   9
ENDBRANCH   7   8
ENDBRANCH   6   7
ENDBRANCH   5   6
ENDBRANCH   3   5
ENDBRANCH   1   3
TORSDOF 17
ENDMDL
MODEL 18
REMARK VINA RESULT:      -4.6     34.823     36.436
REMARK  17 active torsions:
REMARK  status: ('A' for Active; 'I' for Inactive)
REMARK    1  A    between atoms: O_1  and  C_20 
REMARK    2  A    between atoms: C_3  and  C_4 
REMARK    3  A    between atoms: C_3  and  C_5 
REMARK    4  A    between atoms: C_4  and  C_6 
REMARK    5  A    between atoms: C_5  and  C_7 
REMARK    6  A    between atoms: C_6  and  C_8 
REMARK    7  A    between atoms: C_7  and  C_9 
REMARK    8  A    between atoms: C_8  and  C_10 
REMARK    9  A    between atoms: C_9  and  C_11 
REMARK   10  A    between atoms: C_10  and  C_12 
REMARK   11  A    between atoms: C_11  and  C_13 
REMARK   12  A    between atoms: C_12  and  C_14 
REMARK   13  A    between atoms: C_13  and  C_15 
REMARK   14  A    between atoms: C_14  and  C_16 
REMARK   15  A    between atoms: C_15  and  C_17 
REMARK   16  A    between atoms: C_16  and  C_18 
REMARK   17  A    between atoms: C_18  and  C_20 
ROOT
HETATM    1  O   UNL     1     -41.491  -9.563 -11.652  1.00  0.00    -0.776 OA
HETATM    2  H   UNL     1     -40.858  -9.919 -12.291  1.00  0.00     0.167 HD
ENDROOT
BRANCH   1   3
HETATM    3  C   UNL     1     -41.089  -9.053 -10.469  1.00  0.00     0.139 C 
HETATM    4  O   UNL     1     -41.918  -8.610  -9.688  1.00  0.00    -0.650 OA
BRANCH   3   5
HETATM    5  C   UNL     1     -39.625  -8.988 -10.123  1.00  0.00     0.110 C 
BRANCH   5   6
HETATM    6  C   UNL     1     -38.890  -7.801 -10.775  1.00  0.00     0.010 C 
BRANCH   6   7
HETATM    7  C   UNL     1     -39.115  -6.426 -10.114  1.00  0.00     0.001 C 
BRANCH   7   8
HETATM    8  C   UNL     1     -37.936  -5.441 -10.245  1.00  0.00     0.000 C 
BRANCH   8   9
HETATM    9  C   UNL     1     -37.344  -4.947  -8.909  1.00  0.00     0.000 C 
BRANCH   9  10
HETATM   10  C   UNL     1     -37.756  -5.765  -7.670  1.00  0.00     0.000 C 
BRANCH  10  11
HETATM   11  C   UNL     1     -36.667  -6.706  -7.117  1.00  0.00     0.000 C 
BRANCH  11  12
HETATM   12  C   UNL     1     -36.260  -7.857  -8.059  1.00  0.00     0.000 C 
BRANCH  12  13
HETATM   13  C   UNL     1     -34.765  -7.894  -8.438  1.00  0.00     0.000 C 
BRANCH  13  14
HETATM   14  C   UNL     1     -34.471  -8.352  -9.880  1.00  0.00     0.000 C 
BRANCH  14  15
HETATM   15  C   UNL     1     -34.726  -7.288 -10.968  1.00  0.00     0.000 C 
BRANCH  15  16
HETATM   16  C   UNL     1     -35.618  -7.750 -12.136  1.00  0.00     0.000 C 
BRANCH  16  17
HETATM   17  C   UNL     1     -36.125  -6.622 -13.056  1.00  0.00     0.000 C 
BRANCH  17  18
HETATM   18  C   UNL     1     -36.929  -7.092 -14.284  1.00  0.00     0.000 C 
BRANCH  18  19
HETATM   19  C   UNL     1     -38.063  -6.142 -14.723  1.00  0.00    -0.000 C 
BRANCH  19  20
HETATM   20  C   UNL     1     -37.633  -4.687 -14.990  1.00  0.00    -0.005 C 
HETATM   21  C   UNL     1     -37.754  -4.283 -16.459  1.00  0.00     0.005 C 
ENDBRANCH  19  20
ENDBRANCH  18  19
ENDBRANCH  17  18
ENDBRANCH  16  17
ENDBRANCH  15  16
ENDBRANCH  14  15
ENDBRANCH  13  14
ENDBRANCH  12  13
ENDBRANCH  11  12
ENDBRANCH  10  11
ENDBRANCH   9  10
ENDBRANCH   8   9
ENDBRANCH   7   8
ENDBRANCH   6   7
ENDBRANCH   5   6
ENDBRANCH   3   5
ENDBRANCH   1   3
TORSDOF 17
ENDMDL
MODEL 19
REMARK VINA RESULT:      -4.5     34.479     36.625
REMARK  17 active torsions:
REMARK  status: ('A' for Active; 'I' for Inactive)
REMARK    1  A    between atoms: O_1  and  C_20 
REMARK    2  A    between atoms: C_3  and  C_4 
REMARK    3  A    between atoms: C_3  and  C_5 
REMARK    4  A    between atoms: C_4  and  C_6 
REMARK    5  A    between atoms: C_5  and  C_7 
REMARK    6  A    between atoms: C_6  and  C_8 
REMARK    7  A    between atoms: C_7  and  C_9 
REMARK    8  A    between atoms: C_8  and  C_10 
REMARK    9  A    between atoms: C_9  and  C_11 
REMARK   10  A    between atoms: C_10  and  C_12 
REMARK   11  A    between atoms: C_11  and  C_13 
REMARK   12  A    between atoms: C_12  and  C_14 
REMARK   13  A    between atoms: C_13  and  C_15 
REMARK   14  A    between atoms: C_14  and  C_16 
REMARK   15  A    between atoms: C_15  and  C_17 
REMARK   16  A    between atoms: C_16  and  C_18 
REMARK   17  A    between atoms: C_18  and  C_20 
ROOT
HETATM    1  O   UNL     1     -39.674  -8.233  -8.469  1.00  0.00    -0.776 OA
HETATM    2  H   UNL     1     -39.709  -9.137  -8.809  1.00  0.00     0.167 HD
ENDROOT
BRANCH   1   3
HETATM    3  C   UNL     1     -38.651  -7.406  -8.767  1.00  0.00     0.139 C 
HETATM    4  O   UNL     1     -37.631  -7.438  -8.094  1.00  0.00    -0.650 OA
BRANCH   3   5
HETATM    5  C   UNL     1     -38.772  -6.414  -9.894  1.00  0.00     0.110 C 
BRANCH   5   6
HETATM    6  C   UNL     1     -37.908  -5.154  -9.701  1.00  0.00     0.010 C 
BRANCH   6   7
HETATM    7  C   UNL     1     -36.960  -4.803 -10.867  1.00  0.00     0.001 C 
BRANCH   7   8
HETATM    8  C   UNL     1     -37.660  -4.524 -12.211  1.00  0.00     0.000 C 
BRANCH   8   9
HETATM    9  C   UNL     1     -37.540  -5.649 -13.258  1.00  0.00     0.000 C 
BRANCH   9  10
HETATM   10  C   UNL     1     -37.973  -5.261 -14.686  1.00  0.00     0.000 C 
BRANCH  10  11
HETATM   11  C   UNL     1     -36.818  -5.095 -15.695  1.00  0.00     0.000 C 
BRANCH  11  12
HETATM   12  C   UNL     1     -36.421  -6.378 -16.450  1.00  0.00     0.000 C 
BRANCH  12  13
HETATM   13  C   UNL     1     -36.805  -6.404 -17.944  1.00  0.00     0.000 C 
BRANCH  13  14
HETATM   14  C   UNL     1     -38.265  -6.808 -18.233  1.00  0.00     0.000 C 
BRANCH  14  15
HETATM   15  C   UNL     1     -38.726  -6.593 -19.688  1.00  0.00     0.000 C 
BRANCH  15  16
HETATM   16  C   UNL     1     -38.373  -5.217 -20.288  1.00  0.00     0.000 C 
BRANCH  16  17
HETATM   17  C   UNL     1     -37.066  -5.177 -21.103  1.00  0.00     0.000 C 
BRANCH  17  18
HETATM   18  C   UNL     1     -36.982  -6.199 -22.254  1.00  0.00     0.000 C 
BRANCH  18  19
HETATM   19  C   UNL     1     -35.926  -7.308 -22.065  1.00  0.00    -0.000 C 
BRANCH  19  20
HETATM   20  C   UNL     1     -34.799  -6.977 -21.070  1.00  0.00    -0.005 C 
HETATM   21  C   UNL     1     -34.438  -8.149 -20.157  1.00  0.00     0.005 C 
ENDBRANCH  19  20
ENDBRANCH  18  19
ENDBRANCH  17  18
ENDBRANCH  16  17
ENDBRANCH  15  16
ENDBRANCH  14  15
ENDBRANCH  13  14
ENDBRANCH  12  13
ENDBRANCH  11  12
ENDBRANCH  10  11
ENDBRANCH   9  10
ENDBRANCH   8   9
ENDBRANCH   7   8
ENDBRANCH   6   7
ENDBRANCH   5   6
ENDBRANCH   3   5
ENDBRANCH   1   3
TORSDOF 17
ENDMDL
MODEL 20
REMARK VINA RESULT:      -4.5     23.295     24.488
REMARK  17 active torsions:
REMARK  status: ('A' for Active; 'I' for Inactive)
REMARK    1  A    between atoms: O_1  and  C_20 
REMARK    2  A    between atoms: C_3  and  C_4 
REMARK    3  A    between atoms: C_3  and  C_5 
REMARK    4  A    between atoms: C_4  and  C_6 
REMARK    5  A    between atoms: C_5  and  C_7 
REMARK    6  A    between atoms: C_6  and  C_8 
REMARK    7  A    between atoms: C_7  and  C_9 
REMARK    8  A    between atoms: C_8  and  C_10 
REMARK    9  A    between atoms: C_9  and  C_11 
REMARK   10  A    between atoms: C_10  and  C_12 
REMARK   11  A    between atoms: C_11  and  C_13 
REMARK   12  A    between atoms: C_12  and  C_14 
REMARK   13  A    between atoms: C_13  and  C_15 
REMARK   14  A    between atoms: C_14  and  C_16 
REMARK   15  A    between atoms: C_15  and  C_17 
REMARK   16  A    between atoms: C_16  and  C_18 
REMARK   17  A    between atoms: C_18  and  C_20 
ROOT
HETATM    1  O   UNL     1      -3.768  15.109 -14.929  1.00  0.00    -0.776 OA
HETATM    2  H   UNL     1      -3.321  14.252 -14.895  1.00  0.00     0.167 HD
ENDROOT
BRANCH   1   3
HETATM    3  C   UNL     1      -4.890  15.292 -15.655  1.00  0.00     0.139 C 
HETATM    4  O   UNL     1      -4.810  15.722 -16.796  1.00  0.00    -0.650 OA
BRANCH   3   5
HETATM    5  C   UNL     1      -6.243  15.009 -15.056  1.00  0.00     0.110 C 
BRANCH   5   6
HETATM    6  C   UNL     1      -6.290  15.189 -13.527  1.00  0.00     0.010 C 
BRANCH   6   7
HETATM    7  C   UNL     1      -6.502  16.633 -13.027  1.00  0.00     0.001 C 
BRANCH   7   8
HETATM    8  C   UNL     1      -5.369  17.186 -12.140  1.00  0.00     0.000 C 
BRANCH   8   9
HETATM    9  C   UNL     1      -4.514  16.119 -11.428  1.00  0.00     0.000 C 
BRANCH   9  10
HETATM   10  C   UNL     1      -4.950  15.788  -9.987  1.00  0.00     0.000 C 
BRANCH  10  11
HETATM   11  C   UNL     1      -5.396  14.329  -9.758  1.00  0.00     0.000 C 
BRANCH  11  12
HETATM   12  C   UNL     1      -6.872  14.153  -9.352  1.00  0.00     0.000 C 
BRANCH  12  13
HETATM   13  C   UNL     1      -7.837  15.214  -9.919  1.00  0.00     0.000 C 
BRANCH  13  14
HETATM   14  C   UNL     1      -8.543  16.085  -8.860  1.00  0.00     0.000 C 
BRANCH  14  15
HETATM   15  C   UNL     1      -7.937  17.488  -8.659  1.00  0.00     0.000 C 
BRANCH  15  16
HETATM   16  C   UNL     1      -7.881  17.971  -7.196  1.00  0.00     0.000 C 
BRANCH  16  17
HETATM   17  C   UNL     1      -7.377  16.926  -6.182  1.00  0.00     0.000 C 
BRANCH  17  18
HETATM   18  C   UNL     1      -5.857  16.667  -6.212  1.00  0.00     0.000 C 
BRANCH  18  19
HETATM   19  C   UNL     1      -5.446  15.183  -6.126  1.00  0.00    -0.000 C 
BRANCH  19  20
HETATM   20  C   UNL     1      -6.571  14.214  -5.715  1.00  0.00    -0.005 C 
HETATM   21  C   UNL     1      -6.510  13.809  -4.243  1.00  0.00     0.005 C 
ENDBRANCH  19  20
ENDBRANCH  18  19
ENDBRANCH  17  18
ENDBRANCH  16  17
ENDBRANCH  15  16
ENDBRANCH  14  15
ENDBRANCH  13  14
ENDBRANCH  12  13
ENDBRANCH  11  12
ENDBRANCH  10  11
ENDBRANCH   9  10
ENDBRANCH   8   9
ENDBRANCH   7   8
ENDBRANCH   6   7
ENDBRANCH   5   6
ENDBRANCH   3   5
ENDBRANCH   1   3
TORSDOF 17
ENDMDL
