MODEL 1
REMARK VINA RESULT:      -6.2      0.000      0.000
REMARK  16 active torsions:
REMARK  status: ('A' for Active; 'I' for Inactive)
REMARK    1  A    between atoms: O_1  and  C_20 
REMARK    2  A    between atoms: C_3  and  C_4 
REMARK    3  A    between atoms: C_3  and  C_5 
REMARK    4  A    between atoms: C_4  and  C_8 
REMARK    5  A    between atoms: C_5  and  C_11 
REMARK    6  A    between atoms: C_6  and  C_7 
REMARK    7  A    between atoms: C_6  and  C_9 
REMARK    8  A    between atoms: C_7  and  C_10 
REMARK    9  A    between atoms: C_8  and  C_12 
REMARK   10  A    between atoms: C_9  and  C_13 
REMARK   11  A    between atoms: C_10  and  C_14 
REMARK   12  A    between atoms: C_11  and  C_15 
REMARK   13  A    between atoms: C_12  and  C_16 
REMARK   14  A    between atoms: C_13  and  C_17 
REMARK   15  A    between atoms: C_14  and  C_18 
REMARK   16  A    between atoms: C_18  and  C_20 
ROOT
HETATM    1  O   UNL     1      -1.083  -6.398  -9.676  1.00  0.00    -0.776 OA
HETATM    2  H   UNL     1      -0.985  -5.927  -8.836  1.00  0.00     0.167 HD
ENDROOT
BRANCH   1   3
HETATM    3  C   UNL     1      -1.920  -7.449  -9.801  1.00  0.00     0.139 C 
HETATM    4  O   UNL     1      -1.799  -8.414  -9.058  1.00  0.00    -0.650 OA
BRANCH   3   5
HETATM    5  C   UNL     1      -2.991  -7.409 -10.859  1.00  0.00     0.110 C 
BRANCH   5   6
HETATM    6  C   UNL     1      -2.490  -7.852 -12.241  1.00  0.00     0.010 C 
BRANCH   6   7
HETATM    7  C   UNL     1      -3.643  -8.394 -13.096  1.00  0.00     0.001 C 
BRANCH   7   8
HETATM    8  C   UNL     1      -3.571  -7.842 -14.523  1.00  0.00     0.000 C 
BRANCH   8   9
HETATM    9  C   UNL     1      -2.117  -7.701 -14.988  1.00  0.00     0.000 C 
BRANCH   9  10
HETATM   10  C   UNL     1      -2.055  -7.237 -16.447  1.00  0.00     0.004 C 
BRANCH  10  11
HETATM   11  C   UNL     1      -2.272  -8.403 -17.414  1.00  0.00     0.027 C 
BRANCH  11  12
HETATM   12  C   UNL     1      -3.422  -8.081 -18.339  1.00  0.00    -0.031 C 
HETATM   13  C   UNL     1      -3.338  -7.548 -19.574  1.00  0.00    -0.031 C 
BRANCH  13  14
HETATM   14  C   UNL     1      -2.078  -7.143 -20.310  1.00  0.00     0.027 C 
BRANCH  14  15
HETATM   15  C   UNL     1      -2.165  -7.504 -21.803  1.00  0.00     0.004 C 
BRANCH  15  16
HETATM   16  C   UNL     1      -3.396  -8.353 -22.182  1.00  0.00     0.000 C 
BRANCH  16  17
HETATM   17  C   UNL     1      -3.882  -8.109 -23.620  1.00  0.00     0.000 C 
BRANCH  17  18
HETATM   18  C   UNL     1      -2.720  -7.697 -24.533  1.00  0.00     0.000 C 
BRANCH  18  19
HETATM   19  C   UNL     1      -3.146  -6.583 -25.496  1.00  0.00    -0.000 C 
BRANCH  19  20
HETATM   20  C   UNL     1      -1.946  -5.723 -25.911  1.00  0.00    -0.005 C 
HETATM   21  C   UNL     1      -0.631  -6.445 -25.637  1.00  0.00     0.005 C 
ENDBRANCH  19  20
ENDBRANCH  18  19
ENDBRANCH  17  18
ENDBRANCH  16  17
ENDBRANCH  15  16
ENDBRANCH  14  15
ENDBRANCH  13  14
ENDBRANCH  11  12
ENDBRANCH  10  11
ENDBRANCH   9  10
ENDBRANCH   8   9
ENDBRANCH   7   8
ENDBRANCH   6   7
ENDBRANCH   5   6
ENDBRANCH   3   5
ENDBRANCH   1   3
TORSDOF 16
ENDMDL
MODEL 2
REMARK VINA RESULT:      -6.0      4.182      8.294
REMARK  16 active torsions:
REMARK  status: ('A' for Active; 'I' for Inactive)
REMARK    1  A    between atoms: O_1  and  C_20 
REMARK    2  A    between atoms: C_3  and  C_4 
REMARK    3  A    between atoms: C_3  and  C_5 
REMARK    4  A    between atoms: C_4  and  C_8 
REMARK    5  A    between atoms: C_5  and  C_11 
REMARK    6  A    between atoms: C_6  and  C_7 
REMARK    7  A    between atoms: C_6  and  C_9 
REMARK    8  A    between atoms: C_7  and  C_10 
REMARK    9  A    between atoms: C_8  and  C_12 
REMARK   10  A    between atoms: C_9  and  C_13 
REMARK   11  A    between atoms: C_10  and  C_14 
REMARK   12  A    between atoms: C_11  and  C_15 
REMARK   13  A    between atoms: C_12  and  C_16 
REMARK   14  A    between atoms: C_13  and  C_17 
REMARK   15  A    between atoms: C_14  and  C_18 
REMARK   16  A    between atoms: C_18  and  C_20 
ROOT
HETATM    1  O   UNL     1      -1.583  -8.761  -0.592  1.00  0.00    -0.776 OA
HETATM    2  H   UNL     1      -0.993  -7.998  -0.513  1.00  0.00     0.167 HD
ENDROOT
BRANCH   1   3
HETATM    3  C   UNL     1      -2.172  -9.077  -1.764  1.00  0.00     0.139 C 
HETATM    4  O   UNL     1      -2.425 -10.247  -2.021  1.00  0.00    -0.650 OA
BRANCH   3   5
HETATM    5  C   UNL     1      -2.508  -7.976  -2.735  1.00  0.00     0.110 C 
BRANCH   5   6
HETATM    6  C   UNL     1      -3.731  -8.291  -3.606  1.00  0.00     0.010 C 
BRANCH   6   7
HETATM    7  C   UNL     1      -3.635  -7.588  -4.966  1.00  0.00     0.001 C 
BRANCH   7   8
HETATM    8  C   UNL     1      -2.197  -7.617  -5.495  1.00  0.00     0.000 C 
BRANCH   8   9
HETATM    9  C   UNL     1      -2.148  -7.235  -6.979  1.00  0.00     0.000 C 
BRANCH   9  10
HETATM   10  C   UNL     1      -2.732  -8.354  -7.848  1.00  0.00     0.004 C 
BRANCH  10  11
HETATM   11  C   UNL     1      -2.010  -8.450  -9.195  1.00  0.00     0.027 C 
BRANCH  11  12
HETATM   12  C   UNL     1      -2.141  -7.137  -9.928  1.00  0.00    -0.031 C 
HETATM   13  C   UNL     1      -2.161  -6.958 -11.264  1.00  0.00    -0.031 C 
BRANCH  13  14
HETATM   14  C   UNL     1      -2.050  -8.028 -12.330  1.00  0.00     0.027 C 
BRANCH  14  15
HETATM   15  C   UNL     1      -3.417  -8.313 -12.976  1.00  0.00     0.004 C 
BRANCH  15  16
HETATM   16  C   UNL     1      -3.611  -7.673 -14.366  1.00  0.00     0.000 C 
BRANCH  16  17
HETATM   17  C   UNL     1      -2.297  -7.182 -14.995  1.00  0.00     0.000 C 
BRANCH  17  18
HETATM   18  C   UNL     1      -1.913  -8.037 -16.211  1.00  0.00     0.000 C 
BRANCH  18  19
HETATM   19  C   UNL     1      -2.974  -7.932 -17.313  1.00  0.00    -0.000 C 
BRANCH  19  20
HETATM   20  C   UNL     1      -2.324  -7.748 -18.689  1.00  0.00    -0.005 C 
HETATM   21  C   UNL     1      -3.376  -7.518 -19.769  1.00  0.00     0.005 C 
ENDBRANCH  19  20
ENDBRANCH  18  19
ENDBRANCH  17  18
ENDBRANCH  16  17
ENDBRANCH  15  16
ENDBRANCH  14  15
ENDBRANCH  13  14
ENDBRANCH  11  12
ENDBRANCH  10  11
ENDBRANCH   9  10
ENDBRANCH   8   9
ENDBRANCH   7   8
ENDBRANCH   6   7
ENDBRANCH   5   6
ENDBRANCH   3   5
ENDBRANCH   1   3
TORSDOF 16
ENDMDL
MODEL 3
REMARK VINA RESULT:      -5.6      2.867      5.950
REMARK  16 active torsions:
REMARK  status: ('A' for Active; 'I' for Inactive)
REMARK    1  A    between atoms: O_1  and  C_20 
REMARK    2  A    between atoms: C_3  and  C_4 
REMARK    3  A    between atoms: C_3  and  C_5 
REMARK    4  A    between atoms: C_4  and  C_8 
REMARK    5  A    between atoms: C_5  and  C_11 
REMARK    6  A    between atoms: C_6  and  C_7 
REMARK    7  A    between atoms: C_6  and  C_9 
REMARK    8  A    between atoms: C_7  and  C_10 
REMARK    9  A    between atoms: C_8  and  C_12 
REMARK   10  A    between atoms: C_9  and  C_13 
REMARK   11  A    between atoms: C_10  and  C_14 
REMARK   12  A    between atoms: C_11  and  C_15 
REMARK   13  A    between atoms: C_12  and  C_16 
REMARK   14  A    between atoms: C_13  and  C_17 
REMARK   15  A    between atoms: C_14  and  C_18 
REMARK   16  A    between atoms: C_18  and  C_20 
ROOT
HETATM    1  O   UNL     1      -4.305  -7.622  -4.612  1.00  0.00    -0.776 OA
HETATM    2  H   UNL     1      -4.468  -7.656  -5.565  1.00  0.00     0.167 HD
ENDROOT
BRANCH   1   3
HETATM    3  C   UNL     1      -3.179  -8.134  -4.070  1.00  0.00     0.139 C 
HETATM    4  O   UNL     1      -3.253  -8.861  -3.089  1.00  0.00    -0.650 OA
BRANCH   3   5
HETATM    5  C   UNL     1      -1.850  -7.795  -4.692  1.00  0.00     0.110 C 
BRANCH   5   6
HETATM    6  C   UNL     1      -1.980  -7.019  -6.010  1.00  0.00     0.010 C 
BRANCH   6   7
HETATM    7  C   UNL     1      -2.833  -7.794  -7.022  1.00  0.00     0.001 C 
BRANCH   7   8
HETATM    8  C   UNL     1      -1.970  -8.764  -7.835  1.00  0.00     0.000 C 
BRANCH   8   9
HETATM    9  C   UNL     1      -1.576  -8.153  -9.185  1.00  0.00     0.000 C 
BRANCH   9  10
HETATM   10  C   UNL     1      -2.807  -7.598  -9.910  1.00  0.00     0.004 C 
BRANCH  10  11
HETATM   11  C   UNL     1      -2.455  -7.116 -11.320  1.00  0.00     0.027 C 
BRANCH  11  12
HETATM   12  C   UNL     1      -3.024  -8.078 -12.335  1.00  0.00    -0.031 C 
HETATM   13  C   UNL     1      -2.662  -8.193 -13.629  1.00  0.00    -0.031 C 
BRANCH  13  14
HETATM   14  C   UNL     1      -1.612  -7.382 -14.358  1.00  0.00     0.027 C 
BRANCH  14  15
HETATM   15  C   UNL     1      -2.125  -6.914 -15.732  1.00  0.00     0.004 C 
BRANCH  15  16
HETATM   16  C   UNL     1      -2.868  -8.000 -16.537  1.00  0.00     0.000 C 
BRANCH  16  17
HETATM   17  C   UNL     1      -2.330  -8.168 -17.967  1.00  0.00     0.000 C 
BRANCH  17  18
HETATM   18  C   UNL     1      -3.435  -7.929 -19.005  1.00  0.00     0.000 C 
BRANCH  18  19
HETATM   19  C   UNL     1      -2.917  -7.085 -20.175  1.00  0.00    -0.000 C 
BRANCH  19  20
HETATM   20  C   UNL     1      -1.990  -7.905 -21.080  1.00  0.00    -0.005 C 
HETATM   21  C   UNL     1      -2.560  -8.021 -22.490  1.00  0.00     0.005 C 
ENDBRANCH  19  20
ENDBRANCH  18  19
ENDBRANCH  17  18
ENDBRANCH  16  17
ENDBRANCH  15  16
ENDBRANCH  14  15
ENDBRANCH  13  14
ENDBRANCH  11  12
ENDBRANCH  10  11
ENDBRANCH   9  10
ENDBRANCH   8   9
ENDBRANCH   7   8
ENDBRANCH   6   7
ENDBRANCH   5   6
ENDBRANCH   3   5
ENDBRANCH   1   3
TORSDOF 16
ENDMDL
MODEL 4
REMARK VINA RESULT:      -4.7     33.041     35.336
REMARK  16 active torsions:
REMARK  status: ('A' for Active; 'I' for Inactive)
REMARK    1  A    between atoms: O_1  and  C_20 
REMARK    2  A    between atoms: C_3  and  C_4 
REMARK    3  A    between atoms: C_3  and  C_5 
REMARK    4  A    between atoms: C_4  and  C_8 
REMARK    5  A    between atoms: C_5  and  C_11 
REMARK    6  A    between atoms: C_6  and  C_7 
REMARK    7  A    between atoms: C_6  and  C_9 
REMARK    8  A    between atoms: C_7  and  C_10 
REMARK    9  A    between atoms: C_8  and  C_12 
REMARK   10  A    between atoms: C_9  and  C_13 
REMARK   11  A    between atoms: C_10  and  C_14 
REMARK   12  A    between atoms: C_11  and  C_15 
REMARK   13  A    between atoms: C_12  and  C_16 
REMARK   14  A    between atoms: C_13  and  C_17 
REMARK   15  A    between atoms: C_14  and  C_18 
REMARK   16  A    between atoms: C_18  and  C_20 
ROOT
HETATM    1  O   UNL     1     -33.972 -10.063 -14.279  1.00  0.00    -0.776 OA
HETATM    2  H   UNL     1     -33.120 -10.397 -13.964  1.00  0.00     0.167 HD
ENDROOT
BRANCH   1   3
HETATM    3  C   UNL     1     -34.142  -8.766 -14.611  1.00  0.00     0.139 C 
HETATM    4  O   UNL     1     -33.276  -7.948 -14.328  1.00  0.00    -0.650 OA
BRANCH   3   5
HETATM    5  C   UNL     1     -35.402  -8.353 -15.325  1.00  0.00     0.110 C 
BRANCH   5   6
HETATM    6  C   UNL     1     -35.370  -6.898 -15.811  1.00  0.00     0.010 C 
BRANCH   6   7
HETATM    7  C   UNL     1     -36.741  -6.468 -16.349  1.00  0.00     0.001 C 
BRANCH   7   8
HETATM    8  C   UNL     1     -37.095  -5.054 -15.876  1.00  0.00     0.000 C 
BRANCH   8   9
HETATM    9  C   UNL     1     -37.525  -5.056 -14.405  1.00  0.00     0.000 C 
BRANCH   9  10
HETATM   10  C   UNL     1     -38.273  -6.348 -14.060  1.00  0.00     0.004 C 
BRANCH  10  11
HETATM   11  C   UNL     1     -38.061  -6.742 -12.596  1.00  0.00     0.027 C 
BRANCH  11  12
HETATM   12  C   UNL     1     -36.831  -6.047 -12.062  1.00  0.00    -0.031 C 
HETATM   13  C   UNL     1     -35.770  -6.628 -11.467  1.00  0.00    -0.031 C 
BRANCH  13  14
HETATM   14  C   UNL     1     -35.573  -8.104 -11.193  1.00  0.00     0.027 C 
BRANCH  14  15
HETATM   15  C   UNL     1     -34.738  -8.327  -9.919  1.00  0.00     0.004 C 
BRANCH  15  16
HETATM   16  C   UNL     1     -35.266  -7.585  -8.675  1.00  0.00     0.000 C 
BRANCH  16  17
HETATM   17  C   UNL     1     -36.428  -8.315  -7.981  1.00  0.00     0.000 C 
BRANCH  17  18
HETATM   18  C   UNL     1     -37.485  -7.321  -7.480  1.00  0.00     0.000 C 
BRANCH  18  19
HETATM   19  C   UNL     1     -37.642  -6.148  -8.455  1.00  0.00    -0.000 C 
BRANCH  19  20
HETATM   20  C   UNL     1     -37.564  -4.805  -7.720  1.00  0.00    -0.005 C 
HETATM   21  C   UNL     1     -37.113  -4.994  -6.274  1.00  0.00     0.005 C 
ENDBRANCH  19  20
ENDBRANCH  18  19
ENDBRANCH  17  18
ENDBRANCH  16  17
ENDBRANCH  15  16
ENDBRANCH  14  15
ENDBRANCH  13  14
ENDBRANCH  11  12
ENDBRANCH  10  11
ENDBRANCH   9  10
ENDBRANCH   8   9
ENDBRANCH   7   8
ENDBRANCH   6   7
ENDBRANCH   5   6
ENDBRANCH   3   5
ENDBRANCH   1   3
TORSDOF 16
ENDMDL
MODEL 5
REMARK VINA RESULT:      -4.6     41.107     42.020
REMARK  16 active torsions:
REMARK  status: ('A' for Active; 'I' for Inactive)
REMARK    1  A    between atoms: O_1  and  C_20 
REMARK    2  A    between atoms: C_3  and  C_4 
REMARK    3  A    between atoms: C_3  and  C_5 
REMARK    4  A    between atoms: C_4  and  C_8 
REMARK    5  A    between atoms: C_5  and  C_11 
REMARK    6  A    between atoms: C_6  and  C_7 
REMARK    7  A    between atoms: C_6  and  C_9 
REMARK    8  A    between atoms: C_7  and  C_10 
REMARK    9  A    between atoms: C_8  and  C_12 
REMARK   10  A    between atoms: C_9  and  C_13 
REMARK   11  A    between atoms: C_10  and  C_14 
REMARK   12  A    between atoms: C_11  and  C_15 
REMARK   13  A    between atoms: C_12  and  C_16 
REMARK   14  A    between atoms: C_13  and  C_17 
REMARK   15  A    between atoms: C_14  and  C_18 
REMARK   16  A    between atoms: C_18  and  C_20 
ROOT
HETATM    1  O   UNL     1     -23.829  25.257  -8.505  1.00  0.00    -0.776 OA
HETATM    2  H   UNL     1     -24.395  25.727  -7.877  1.00  0.00     0.167 HD
ENDROOT
BRANCH   1   3
HETATM    3  C   UNL     1     -22.669  25.790  -8.943  1.00  0.00     0.139 C 
HETATM    4  O   UNL     1     -21.778  25.055  -9.348  1.00  0.00    -0.650 OA
BRANCH   3   5
HETATM    5  C   UNL     1     -22.498  27.286  -8.924  1.00  0.00     0.110 C 
BRANCH   5   6
HETATM    6  C   UNL     1     -21.115  27.741  -9.410  1.00  0.00     0.010 C 
BRANCH   6   7
HETATM    7  C   UNL     1     -20.844  29.197  -9.010  1.00  0.00     0.001 C 
BRANCH   7   8
HETATM    8  C   UNL     1     -20.315  30.002 -10.202  1.00  0.00     0.000 C 
BRANCH   8   9
HETATM    9  C   UNL     1     -19.457  31.183  -9.732  1.00  0.00     0.000 C 
BRANCH   9  10
HETATM   10  C   UNL     1     -20.288  32.469  -9.676  1.00  0.00     0.004 C 
BRANCH  10  11
HETATM   11  C   UNL     1     -21.375  32.479 -10.754  1.00  0.00     0.027 C 
BRANCH  11  12
HETATM   12  C   UNL     1     -21.159  33.658 -11.673  1.00  0.00    -0.031 C 
HETATM   13  C   UNL     1     -20.393  33.686 -12.783  1.00  0.00    -0.031 C 
BRANCH  13  14
HETATM   14  C   UNL     1     -19.572  32.549 -13.354  1.00  0.00     0.027 C 
BRANCH  14  15
HETATM   15  C   UNL     1     -20.441  31.611 -14.211  1.00  0.00     0.004 C 
BRANCH  15  16
HETATM   16  C   UNL     1     -20.302  30.116 -13.859  1.00  0.00     0.000 C 
BRANCH  16  17
HETATM   17  C   UNL     1     -20.525  29.186 -15.063  1.00  0.00     0.000 C 
BRANCH  17  18
HETATM   18  C   UNL     1     -21.001  27.800 -14.610  1.00  0.00     0.000 C 
BRANCH  18  19
HETATM   19  C   UNL     1     -21.355  27.800 -13.118  1.00  0.00    -0.000 C 
BRANCH  19  20
HETATM   20  C   UNL     1     -22.321  26.658 -12.779  1.00  0.00    -0.005 C 
HETATM   21  C   UNL     1     -22.296  25.579 -13.857  1.00  0.00     0.005 C 
ENDBRANCH  19  20
ENDBRANCH  18  19
ENDBRANCH  17  18
ENDBRANCH  16  17
ENDBRANCH  15  16
ENDBRANCH  14  15
ENDBRANCH  13  14
ENDBRANCH  11  12
ENDBRANCH  10  11
ENDBRANCH   9  10
ENDBRANCH   8   9
ENDBRANCH   7   8
ENDBRANCH   6   7
ENDBRANCH   5   6
ENDBRANCH   3   5
ENDBRANCH   1   3
TORSDOF 16
ENDMDL
MODEL 6
REMARK VINA RESULT:      -4.6     33.254     35.037
REMARK  16 active torsions:
REMARK  status: ('A' for Active; 'I' for Inactive)
REMARK    1  A    between atoms: O_1  and  C_20 
REMARK    2  A    between atoms: C_3  and  C_4 
REMARK    3  A    between atoms: C_3  and  C_5 
REMARK    4  A    between atoms: C_4  and  C_8 
REMARK    5  A    between atoms: C_5  and  C_11 
REMARK    6  A    between atoms: C_6  and  C_7 
REMARK    7  A    between atoms: C_6  and  C_9 
REMARK    8  A    between atoms: C_7  and  C_10 
REMARK    9  A    between atoms: C_8  and  C_12 
REMARK   10  A    between atoms: C_9  and  C_13 
REMARK   11  A    between atoms: C_10  and  C_14 
REMARK   12  A    between atoms: C_11  and  C_15 
REMARK   13  A    between atoms: C_12  and  C_16 
REMARK   14  A    between atoms: C_13  and  C_17 
REMARK   15  A    between atoms: C_14  and  C_18 
REMARK   16  A    between atoms: C_18  and  C_20 
ROOT
HETATM    1  O   UNL     1     -35.180 -11.246 -21.548  1.00  0.00    -0.776 OA
HETATM    2  H   UNL     1     -35.431 -11.817 -20.807  1.00  0.00     0.167 HD
ENDROOT
BRANCH   1   3
HETATM    3  C   UNL     1     -34.790  -9.969 -21.352  1.00  0.00     0.139 C 
HETATM    4  O   UNL     1     -34.113  -9.684 -20.373  1.00  0.00    -0.650 OA
BRANCH   3   5
HETATM    5  C   UNL     1     -35.199  -8.918 -22.351  1.00  0.00     0.110 C 
BRANCH   5   6
HETATM    6  C   UNL     1     -35.742  -7.641 -21.694  1.00  0.00     0.010 C 
BRANCH   6   7
HETATM    7  C   UNL     1     -37.210  -7.411 -22.072  1.00  0.00     0.001 C 
BRANCH   7   8
HETATM    8  C   UNL     1     -37.476  -5.928 -22.354  1.00  0.00     0.000 C 
BRANCH   8   9
HETATM    9  C   UNL     1     -36.945  -5.047 -21.217  1.00  0.00     0.000 C 
BRANCH   9  10
HETATM   10  C   UNL     1     -38.035  -4.797 -20.169  1.00  0.00     0.004 C 
BRANCH  10  11
HETATM   11  C   UNL     1     -37.561  -5.187 -18.767  1.00  0.00     0.027 C 
BRANCH  11  12
HETATM   12  C   UNL     1     -37.828  -6.655 -18.536  1.00  0.00    -0.031 C 
HETATM   13  C   UNL     1     -36.924  -7.595 -18.196  1.00  0.00    -0.031 C 
BRANCH  13  14
HETATM   14  C   UNL     1     -35.439  -7.397 -17.977  1.00  0.00     0.027 C 
BRANCH  14  15
HETATM   15  C   UNL     1     -35.130  -7.100 -16.499  1.00  0.00     0.004 C 
BRANCH  15  16
HETATM   16  C   UNL     1     -34.973  -8.355 -15.617  1.00  0.00     0.000 C 
BRANCH  16  17
HETATM   17  C   UNL     1     -35.879  -8.339 -14.374  1.00  0.00     0.000 C 
BRANCH  17  18
HETATM   18  C   UNL     1     -36.267  -6.905 -13.991  1.00  0.00     0.000 C 
BRANCH  18  19
HETATM   19  C   UNL     1     -37.787  -6.769 -13.836  1.00  0.00    -0.000 C 
BRANCH  19  20
HETATM   20  C   UNL     1     -38.387  -5.941 -14.977  1.00  0.00    -0.005 C 
HETATM   21  C   UNL     1     -37.720  -4.572 -15.074  1.00  0.00     0.005 C 
ENDBRANCH  19  20
ENDBRANCH  18  19
ENDBRANCH  17  18
ENDBRANCH  16  17
ENDBRANCH  15  16
ENDBRANCH  14  15
ENDBRANCH  13  14
ENDBRANCH  11  12
ENDBRANCH  10  11
ENDBRANCH   9  10
ENDBRANCH   8   9
ENDBRANCH   7   8
ENDBRANCH   6   7
ENDBRANCH   5   6
ENDBRANCH   3   5
ENDBRANCH   1   3
TORSDOF 16
ENDMDL
MODEL 7
REMARK VINA RESULT:      -4.6     33.591     35.969
REMARK  16 active torsions:
REMARK  status: ('A' for Active; 'I' for Inactive)
REMARK    1  A    between atoms: O_1  and  C_20 
REMARK    2  A    between atoms: C_3  and  C_4 
REMARK    3  A    between atoms: C_3  and  C_5 
REMARK    4  A    between atoms: C_4  and  C_8 
REMARK    5  A    between atoms: C_5  and  C_11 
REMARK    6  A    between atoms: C_6  and  C_7 
REMARK    7  A    between atoms: C_6  and  C_9 
REMARK    8  A    between atoms: C_7  and  C_10 
REMARK    9  A    between atoms: C_8  and  C_12 
REMARK   10  A    between atoms: C_9  and  C_13 
REMARK   11  A    between atoms: C_10  and  C_14 
REMARK   12  A    between atoms: C_11  and  C_15 
REMARK   13  A    between atoms: C_12  and  C_16 
REMARK   14  A    between atoms: C_13  and  C_17 
REMARK   15  A    between atoms: C_14  and  C_18 
REMARK   16  A    between atoms: C_18  and  C_20 
ROOT
HETATM    1  O   UNL     1     -34.651  -9.519 -20.697  1.00  0.00    -0.776 OA
HETATM    2  H   UNL     1     -34.995  -9.825 -21.548  1.00  0.00     0.167 HD
ENDROOT
BRANCH   1   3
HETATM    3  C   UNL     1     -34.568  -8.205 -20.401  1.00  0.00     0.139 C 
HETATM    4  O   UNL     1     -34.040  -7.437 -21.193  1.00  0.00    -0.650 OA
BRANCH   3   5
HETATM    5  C   UNL     1     -35.130  -7.714 -19.093  1.00  0.00     0.110 C 
BRANCH   5   6
HETATM    6  C   UNL     1     -36.508  -7.052 -19.240  1.00  0.00     0.010 C 
BRANCH   6   7
HETATM    7  C   UNL     1     -37.021  -6.544 -17.887  1.00  0.00     0.001 C 
BRANCH   7   8
HETATM    8  C   UNL     1     -37.590  -5.126 -18.016  1.00  0.00     0.000 C 
BRANCH   8   9
HETATM    9  C   UNL     1     -37.598  -4.411 -16.660  1.00  0.00     0.000 C 
BRANCH   9  10
HETATM   10  C   UNL     1     -37.033  -5.319 -15.563  1.00  0.00     0.004 C 
BRANCH  10  11
HETATM   11  C   UNL     1     -38.012  -5.459 -14.394  1.00  0.00     0.027 C 
BRANCH  11  12
HETATM   12  C   UNL     1     -37.349  -6.223 -13.273  1.00  0.00    -0.031 C 
HETATM   13  C   UNL     1     -37.222  -5.825 -11.991  1.00  0.00    -0.031 C 
BRANCH  13  14
HETATM   14  C   UNL     1     -37.705  -4.523 -11.387  1.00  0.00     0.027 C 
BRANCH  14  15
HETATM   15  C   UNL     1     -37.660  -4.573  -9.850  1.00  0.00     0.004 C 
BRANCH  15  16
HETATM   16  C   UNL     1     -37.075  -5.877  -9.271  1.00  0.00     0.000 C 
BRANCH  16  17
HETATM   17  C   UNL     1     -38.082  -6.668  -8.420  1.00  0.00     0.000 C 
BRANCH  17  18
HETATM   18  C   UNL     1     -37.442  -7.147  -7.110  1.00  0.00     0.000 C 
BRANCH  18  19
HETATM   19  C   UNL     1     -36.367  -6.163  -6.632  1.00  0.00    -0.000 C 
BRANCH  19  20
HETATM   20  C   UNL     1     -35.039  -6.883  -6.367  1.00  0.00    -0.005 C 
HETATM   21  C   UNL     1     -34.907  -8.131  -7.234  1.00  0.00     0.005 C 
ENDBRANCH  19  20
ENDBRANCH  18  19
ENDBRANCH  17  18
ENDBRANCH  16  17
ENDBRANCH  15  16
ENDBRANCH  14  15
ENDBRANCH  13  14
ENDBRANCH  11  12
ENDBRANCH  10  11
ENDBRANCH   9  10
ENDBRANCH   8   9
ENDBRANCH   7   8
ENDBRANCH   6   7
ENDBRANCH   5   6
ENDBRANCH   3   5
ENDBRANCH   1   3
TORSDOF 16
ENDMDL
MODEL 8
REMARK VINA RESULT:      -4.5     33.879     34.864
REMARK  16 active torsions:
REMARK  status: ('A' for Active; 'I' for Inactive)
REMARK    1  A    between atoms: O_1  and  C_20 
REMARK    2  A    between atoms: C_3  and  C_4 
REMARK    3  A    between atoms: C_3  and  C_5 
REMARK    4  A    between atoms: C_4  and  C_8 
REMARK    5  A    between atoms: C_5  and  C_11 
REMARK    6  A    between atoms: C_6  and  C_7 
REMARK    7  A    between atoms: C_6  and  C_9 
REMARK    8  A    between atoms: C_7  and  C_10 
REMARK    9  A    between atoms: C_8  and  C_12 
REMARK   10  A    between atoms: C_9  and  C_13 
REMARK   11  A    between atoms: C_10  and  C_14 
REMARK   12  A    between atoms: C_11  and  C_15 
REMARK   13  A    between atoms: C_12  and  C_16 
REMARK   14  A    between atoms: C_13  and  C_17 
REMARK   15  A    between atoms: C_14  and  C_18 
REMARK   16  A    between atoms: C_18  and  C_20 
ROOT
HETATM    1  O   UNL     1     -38.253  -6.030  -5.706  1.00  0.00    -0.776 OA
HETATM    2  H   UNL     1     -38.729  -5.627  -4.966  1.00  0.00     0.167 HD
ENDROOT
BRANCH   1   3
HETATM    3  C   UNL     1     -37.705  -5.280  -6.684  1.00  0.00     0.139 C 
HETATM    4  O   UNL     1     -37.232  -4.183  -6.416  1.00  0.00    -0.650 OA
BRANCH   3   5
HETATM    5  C   UNL     1     -37.687  -5.813  -8.093  1.00  0.00     0.110 C 
BRANCH   5   6
HETATM    6  C   UNL     1     -37.562  -4.711  -9.154  1.00  0.00     0.010 C 
BRANCH   6   7
HETATM    7  C   UNL     1     -37.208  -5.304 -10.523  1.00  0.00     0.001 C 
BRANCH   7   8
HETATM    8  C   UNL     1     -37.573  -4.333 -11.651  1.00  0.00     0.000 C 
BRANCH   8   9
HETATM    9  C   UNL     1     -37.614  -5.050 -13.005  1.00  0.00     0.000 C 
BRANCH   9  10
HETATM   10  C   UNL     1     -37.293  -6.539 -12.841  1.00  0.00     0.004 C 
BRANCH  10  11
HETATM   11  C   UNL     1     -37.174  -7.238 -14.198  1.00  0.00     0.027 C 
BRANCH  11  12
HETATM   12  C   UNL     1     -36.166  -6.506 -15.052  1.00  0.00    -0.031 C 
HETATM   13  C   UNL     1     -36.417  -5.814 -16.181  1.00  0.00    -0.031 C 
BRANCH  13  14
HETATM   14  C   UNL     1     -37.760  -5.620 -16.853  1.00  0.00     0.027 C 
BRANCH  14  15
HETATM   15  C   UNL     1     -38.201  -6.895 -17.593  1.00  0.00     0.004 C 
BRANCH  15  16
HETATM   16  C   UNL     1     -37.919  -6.880 -19.109  1.00  0.00     0.000 C 
BRANCH  16  17
HETATM   17  C   UNL     1     -37.834  -5.462 -19.697  1.00  0.00     0.000 C 
BRANCH  17  18
HETATM   18  C   UNL     1     -36.679  -5.348 -20.700  1.00  0.00     0.000 C 
BRANCH  18  19
HETATM   19  C   UNL     1     -36.617  -6.580 -21.610  1.00  0.00    -0.000 C 
BRANCH  19  20
HETATM   20  C   UNL     1     -35.183  -7.108 -21.728  1.00  0.00    -0.005 C 
HETATM   21  C   UNL     1     -34.675  -7.628 -20.387  1.00  0.00     0.005 C 
ENDBRANCH  19  20
ENDBRANCH  18  19
ENDBRANCH  17  18
ENDBRANCH  16  17
ENDBRANCH  15  16
ENDBRANCH  14  15
ENDBRANCH  13  14
ENDBRANCH  11  12
ENDBRANCH  10  11
ENDBRANCH   9  10
ENDBRANCH   8   9
ENDBRANCH   7   8
ENDBRANCH   6   7
ENDBRANCH   5   6
ENDBRANCH   3   5
ENDBRANCH   1   3
TORSDOF 16
ENDMDL
MODEL 9
REMARK VINA RESULT:      -4.5     34.322     35.423
REMARK  16 active torsions:
REMARK  status: ('A' for Active; 'I' for Inactive)
REMARK    1  A    between atoms: O_1  and  C_20 
REMARK    2  A    between atoms: C_3  and  C_4 
REMARK    3  A    between atoms: C_3  and  C_5 
REMARK    4  A    between atoms: C_4  and  C_8 
REMARK    5  A    between atoms: C_5  and  C_11 
REMARK    6  A    between atoms: C_6  and  C_7 
REMARK    7  A    between atoms: C_6  and  C_9 
REMARK    8  A    between atoms: C_7  and  C_10 
REMARK    9  A    between atoms: C_8  and  C_12 
REMARK   10  A    between atoms: C_9  and  C_13 
REMARK   11  A    between atoms: C_10  and  C_14 
REMARK   12  A    between atoms: C_11  and  C_15 
REMARK   13  A    between atoms: C_12  and  C_16 
REMARK   14  A    between atoms: C_13  and  C_17 
REMARK   15  A    between atoms: C_14  and  C_18 
REMARK   16  A    between atoms: C_18  and  C_20 
ROOT
HETATM    1  O   UNL     1     -39.966 -10.902 -15.950  1.00  0.00    -0.776 OA
HETATM    2  H   UNL     1     -39.246 -11.210 -16.517  1.00  0.00     0.167 HD
ENDROOT
BRANCH   1   3
HETATM    3  C   UNL     1     -40.259  -9.590 -15.831  1.00  0.00     0.139 C 
HETATM    4  O   UNL     1     -41.422  -9.238 -15.680  1.00  0.00    -0.650 OA
BRANCH   3   5
HETATM    5  C   UNL     1     -39.141  -8.583 -15.888  1.00  0.00     0.110 C 
BRANCH   5   6
HETATM    6  C   UNL     1     -39.373  -7.372 -14.974  1.00  0.00     0.010 C 
BRANCH   6   7
HETATM    7  C   UNL     1     -38.143  -7.099 -14.100  1.00  0.00     0.001 C 
BRANCH   7   8
HETATM    8  C   UNL     1     -37.430  -5.817 -14.542  1.00  0.00     0.000 C 
BRANCH   8   9
HETATM    9  C   UNL     1     -38.403  -4.858 -15.238  1.00  0.00     0.000 C 
BRANCH   9  10
HETATM   10  C   UNL     1     -37.759  -4.241 -16.484  1.00  0.00     0.004 C 
BRANCH  10  11
HETATM   11  C   UNL     1     -36.956  -5.280 -17.271  1.00  0.00     0.027 C 
BRANCH  11  12
HETATM   12  C   UNL     1     -37.900  -6.126 -18.092  1.00  0.00    -0.031 C 
HETATM   13  C   UNL     1     -38.310  -5.883 -19.353  1.00  0.00    -0.031 C 
BRANCH  13  14
HETATM   14  C   UNL     1     -37.926  -4.708 -20.227  1.00  0.00     0.027 C 
BRANCH  14  15
HETATM   15  C   UNL     1     -36.617  -4.983 -20.987  1.00  0.00     0.004 C 
BRANCH  15  16
HETATM   16  C   UNL     1     -36.376  -6.470 -21.321  1.00  0.00     0.000 C 
BRANCH  16  17
HETATM   17  C   UNL     1     -35.032  -6.999 -20.794  1.00  0.00     0.000 C 
BRANCH  17  18
HETATM   18  C   UNL     1     -35.243  -8.155 -19.806  1.00  0.00     0.000 C 
BRANCH  18  19
HETATM   19  C   UNL     1     -34.462  -7.917 -18.508  1.00  0.00    -0.000 C 
BRANCH  19  20
HETATM   20  C   UNL     1     -35.241  -8.437 -17.293  1.00  0.00    -0.005 C 
HETATM   21  C   UNL     1     -34.710  -7.830 -15.999  1.00  0.00     0.005 C 
ENDBRANCH  19  20
ENDBRANCH  18  19
ENDBRANCH  17  18
ENDBRANCH  16  17
ENDBRANCH  15  16
ENDBRANCH  14  15
ENDBRANCH  13  14
ENDBRANCH  11  12
ENDBRANCH  10  11
ENDBRANCH   9  10
ENDBRANCH   8   9
ENDBRANCH   7   8
ENDBRANCH   6   7
ENDBRANCH   5   6
ENDBRANCH   3   5
ENDBRANCH   1   3
TORSDOF 16
ENDMDL
MODEL 10
REMARK VINA RESULT:      -4.5     32.967     35.357
REMARK  16 active torsions:
REMARK  status: ('A' for Active; 'I' for Inactive)
REMARK    1  A    between atoms: O_1  and  C_20 
REMARK    2  A    between atoms: C_3  and  C_4 
REMARK    3  A    between atoms: C_3  and  C_5 
REMARK    4  A    between atoms: C_4  and  C_8 
REMARK    5  A    between atoms: C_5  and  C_11 
REMARK    6  A    between atoms: C_6  and  C_7 
REMARK    7  A    between atoms: C_6  and  C_9 
REMARK    8  A    between atoms: C_7  and  C_10 
REMARK    9  A    between atoms: C_8  and  C_12 
REMARK   10  A    between atoms: C_9  and  C_13 
REMARK   11  A    between atoms: C_10  and  C_14 
REMARK   12  A    between atoms: C_11  and  C_15 
REMARK   13  A    between atoms: C_12  and  C_16 
REMARK   14  A    between atoms: C_13  and  C_17 
REMARK   15  A    between atoms: C_14  and  C_18 
REMARK   16  A    between atoms: C_18  and  C_20 
ROOT
HETATM    1  O   UNL     1     -35.757 -11.029 -13.177  1.00  0.00    -0.776 OA
HETATM    2  H   UNL     1     -36.208 -11.058 -12.321  1.00  0.00     0.167 HD
ENDROOT
BRANCH   1   3
HETATM    3  C   UNL     1     -34.424 -10.837 -13.264  1.00  0.00     0.139 C 
HETATM    4  O   UNL     1     -33.672 -11.453 -12.521  1.00  0.00    -0.650 OA
BRANCH   3   5
HETATM    5  C   UNL     1     -33.891  -9.863 -14.282  1.00  0.00     0.110 C 
BRANCH   5   6
HETATM    6  C   UNL     1     -34.260  -8.406 -13.973  1.00  0.00     0.010 C 
BRANCH   6   7
HETATM    7  C   UNL     1     -34.854  -7.715 -15.208  1.00  0.00     0.001 C 
BRANCH   7   8
HETATM    8  C   UNL     1     -36.310  -7.308 -14.959  1.00  0.00     0.000 C 
BRANCH   8   9
HETATM    9  C   UNL     1     -36.540  -5.835 -15.318  1.00  0.00     0.000 C 
BRANCH   9  10
HETATM   10  C   UNL     1     -37.569  -5.202 -14.377  1.00  0.00     0.004 C 
BRANCH  10  11
HETATM   11  C   UNL     1     -37.904  -6.131 -13.208  1.00  0.00     0.027 C 
BRANCH  11  12
HETATM   12  C   UNL     1     -37.620  -5.422 -11.905  1.00  0.00    -0.031 C 
HETATM   13  C   UNL     1     -36.605  -5.675 -11.054  1.00  0.00    -0.031 C 
BRANCH  13  14
HETATM   14  C   UNL     1     -35.529  -6.729 -11.205  1.00  0.00     0.027 C 
BRANCH  14  15
HETATM   15  C   UNL     1     -35.335  -7.517  -9.898  1.00  0.00     0.004 C 
BRANCH  15  16
HETATM   16  C   UNL     1     -36.290  -7.106  -8.759  1.00  0.00     0.000 C 
BRANCH  16  17
HETATM   17  C   UNL     1     -35.674  -7.273  -7.360  1.00  0.00     0.000 C 
BRANCH  17  18
HETATM   18  C   UNL     1     -36.230  -6.230  -6.383  1.00  0.00     0.000 C 
BRANCH  18  19
HETATM   19  C   UNL     1     -37.370  -5.428  -7.023  1.00  0.00    -0.000 C 
BRANCH  19  20
HETATM   20  C   UNL     1     -37.956  -4.415  -6.034  1.00  0.00    -0.005 C 
HETATM   21  C   UNL     1     -37.654  -4.814  -4.593  1.00  0.00     0.005 C 
ENDBRANCH  19  20
ENDBRANCH  18  19
ENDBRANCH  17  18
ENDBRANCH  16  17
ENDBRANCH  15  16
ENDBRANCH  14  15
ENDBRANCH  13  14
ENDBRANCH  11  12
ENDBRANCH  10  11
ENDBRANCH   9  10
ENDBRANCH   8   9
ENDBRANCH   7   8
ENDBRANCH   6   7
ENDBRANCH   5   6
ENDBRANCH   3   5
ENDBRANCH   1   3
TORSDOF 16
ENDMDL
MODEL 11
REMARK VINA RESULT:      -4.5     34.037     35.715
REMARK  16 active torsions:
REMARK  status: ('A' for Active; 'I' for Inactive)
REMARK    1  A    between atoms: O_1  and  C_20 
REMARK    2  A    between atoms: C_3  and  C_4 
REMARK    3  A    between atoms: C_3  and  C_5 
REMARK    4  A    between atoms: C_4  and  C_8 
REMARK    5  A    between atoms: C_5  and  C_11 
REMARK    6  A    between atoms: C_6  and  C_7 
REMARK    7  A    between atoms: C_6  and  C_9 
REMARK    8  A    between atoms: C_7  and  C_10 
REMARK    9  A    between atoms: C_8  and  C_12 
REMARK   10  A    between atoms: C_9  and  C_13 
REMARK   11  A    between atoms: C_10  and  C_14 
REMARK   12  A    between atoms: C_11  and  C_15 
REMARK   13  A    between atoms: C_12  and  C_16 
REMARK   14  A    between atoms: C_13  and  C_17 
REMARK   15  A    between atoms: C_14  and  C_18 
REMARK   16  A    between atoms: C_18  and  C_20 
ROOT
HETATM    1  O   UNL     1     -40.258  -9.698  -8.423  1.00  0.00    -0.776 OA
HETATM    2  H   UNL     1     -40.690  -9.837  -7.568  1.00  0.00     0.167 HD
ENDROOT
BRANCH   1   3
HETATM    3  C   UNL     1     -39.903  -8.465  -8.842  1.00  0.00     0.139 C 
HETATM    4  O   UNL     1     -40.561  -7.906  -9.709  1.00  0.00    -0.650 OA
BRANCH   3   5
HETATM    5  C   UNL     1     -38.698  -7.803  -8.227  1.00  0.00     0.110 C 
BRANCH   5   6
HETATM    6  C   UNL     1     -38.302  -6.498  -8.932  1.00  0.00     0.010 C 
BRANCH   6   7
HETATM    7  C   UNL     1     -37.664  -5.512  -7.946  1.00  0.00     0.001 C 
BRANCH   7   8
HETATM    8  C   UNL     1     -37.505  -6.149  -6.562  1.00  0.00     0.000 C 
BRANCH   8   9
HETATM    9  C   UNL     1     -36.046  -6.090  -6.092  1.00  0.00     0.000 C 
BRANCH   9  10
HETATM   10  C   UNL     1     -35.376  -7.461  -6.230  1.00  0.00     0.004 C 
BRANCH  10  11
HETATM   11  C   UNL     1     -34.505  -7.533  -7.487  1.00  0.00     0.027 C 
BRANCH  11  12
HETATM   12  C   UNL     1     -35.057  -8.585  -8.420  1.00  0.00    -0.031 C 
HETATM   13  C   UNL     1     -35.276  -8.453  -9.744  1.00  0.00    -0.031 C 
BRANCH  13  14
HETATM   14  C   UNL     1     -35.029  -7.223 -10.592  1.00  0.00     0.027 C 
BRANCH  14  15
HETATM   15  C   UNL     1     -34.897  -7.591 -12.080  1.00  0.00     0.004 C 
BRANCH  15  16
HETATM   16  C   UNL     1     -36.064  -7.102 -12.962  1.00  0.00     0.000 C 
BRANCH  16  17
HETATM   17  C   UNL     1     -37.030  -6.162 -12.223  1.00  0.00     0.000 C 
BRANCH  17  18
HETATM   18  C   UNL     1     -37.594  -5.093 -13.168  1.00  0.00     0.000 C 
BRANCH  18  19
HETATM   19  C   UNL     1     -37.566  -5.575 -14.623  1.00  0.00    -0.000 C 
BRANCH  19  20
HETATM   20  C   UNL     1     -37.839  -4.420 -15.593  1.00  0.00    -0.005 C 
HETATM   21  C   UNL     1     -37.560  -4.834 -17.035  1.00  0.00     0.005 C 
ENDBRANCH  19  20
ENDBRANCH  18  19
ENDBRANCH  17  18
ENDBRANCH  16  17
ENDBRANCH  15  16
ENDBRANCH  14  15
ENDBRANCH  13  14
ENDBRANCH  11  12
ENDBRANCH  10  11
ENDBRANCH   9  10
ENDBRANCH   8   9
ENDBRANCH   7   8
ENDBRANCH   6   7
ENDBRANCH   5   6
ENDBRANCH   3   5
ENDBRANCH   1   3
TORSDOF 16
ENDMDL
MODEL 12
REMARK VINA RESULT:      -4.4     33.701     35.893
REMARK  16 active torsions:
REMARK  status: ('A' for Active; 'I' for Inactive)
REMARK    1  A    between atoms: O_1  and  C_20 
REMARK    2  A    between atoms: C_3  and  C_4 
REMARK    3  A    between atoms: C_3  and  C_5 
REMARK    4  A    between atoms: C_4  and  C_8 
REMARK    5  A    between atoms: C_5  and  C_11 
REMARK    6  A    between atoms: C_6  and  C_7 
REMARK    7  A    between atoms: C_6  and  C_9 
REMARK    8  A    between atoms: C_7  and  C_10 
REMARK    9  A    between atoms: C_8  and  C_12 
REMARK   10  A    between atoms: C_9  and  C_13 
REMARK   11  A    between atoms: C_10  and  C_14 
REMARK   12  A    between atoms: C_11  and  C_15 
REMARK   13  A    between atoms: C_12  and  C_16 
REMARK   14  A    between atoms: C_13  and  C_17 
REMARK   15  A    between atoms: C_14  and  C_18 
REMARK   16  A    between atoms: C_18  and  C_20 
ROOT
HETATM    1  O   UNL     1     -34.408  -9.705 -20.966  1.00  0.00    -0.776 OA
HETATM    2  H   UNL     1     -33.492 -10.011 -21.014  1.00  0.00     0.167 HD
ENDROOT
BRANCH   1   3
HETATM    3  C   UNL     1     -34.879  -8.754 -21.800  1.00  0.00     0.139 C 
HETATM    4  O   UNL     1     -35.403  -9.080 -22.857  1.00  0.00    -0.650 OA
BRANCH   3   5
HETATM    5  C   UNL     1     -34.748  -7.306 -21.407  1.00  0.00     0.110 C 
BRANCH   5   6
HETATM    6  C   UNL     1     -36.034  -6.500 -21.638  1.00  0.00     0.010 C 
BRANCH   6   7
HETATM    7  C   UNL     1     -37.118  -6.891 -20.626  1.00  0.00     0.001 C 
BRANCH   7   8
HETATM    8  C   UNL     1     -36.574  -6.837 -19.194  1.00  0.00     0.000 C 
BRANCH   8   9
HETATM    9  C   UNL     1     -37.657  -6.383 -18.209  1.00  0.00     0.000 C 
BRANCH   9  10
HETATM   10  C   UNL     1     -37.675  -4.855 -18.088  1.00  0.00     0.004 C 
BRANCH  10  11
HETATM   11  C   UNL     1     -37.742  -4.412 -16.624  1.00  0.00     0.027 C 
BRANCH  11  12
HETATM   12  C   UNL     1     -36.668  -5.122 -15.835  1.00  0.00    -0.031 C 
HETATM   13  C   UNL     1     -36.855  -6.017 -14.844  1.00  0.00    -0.031 C 
BRANCH  13  14
HETATM   14  C   UNL     1     -38.178  -6.506 -14.293  1.00  0.00     0.027 C 
BRANCH  14  15
HETATM   15  C   UNL     1     -38.088  -6.768 -12.779  1.00  0.00     0.004 C 
BRANCH  15  16
HETATM   16  C   UNL     1     -37.088  -5.859 -12.035  1.00  0.00     0.000 C 
BRANCH  16  17
HETATM   17  C   UNL     1     -37.751  -4.636 -11.381  1.00  0.00     0.000 C 
BRANCH  17  18
HETATM   18  C   UNL     1     -37.609  -4.679  -9.854  1.00  0.00     0.000 C 
BRANCH  18  19
HETATM   19  C   UNL     1     -38.002  -6.055  -9.305  1.00  0.00    -0.000 C 
BRANCH  19  20
HETATM   20  C   UNL     1     -36.994  -6.539  -8.255  1.00  0.00    -0.005 C 
HETATM   21  C   UNL     1     -35.800  -7.223  -8.913  1.00  0.00     0.005 C 
ENDBRANCH  19  20
ENDBRANCH  18  19
ENDBRANCH  17  18
ENDBRANCH  16  17
ENDBRANCH  15  16
ENDBRANCH  14  15
ENDBRANCH  13  14
ENDBRANCH  11  12
ENDBRANCH  10  11
ENDBRANCH   9  10
ENDBRANCH   8   9
ENDBRANCH   7   8
ENDBRANCH   6   7
ENDBRANCH   5   6
ENDBRANCH   3   5
ENDBRANCH   1   3
TORSDOF 16
ENDMDL
MODEL 13
REMARK VINA RESULT:      -4.4     33.645     34.785
REMARK  16 active torsions:
REMARK  status: ('A' for Active; 'I' for Inactive)
REMARK    1  A    between atoms: O_1  and  C_20 
REMARK    2  A    between atoms: C_3  and  C_4 
REMARK    3  A    between atoms: C_3  and  C_5 
REMARK    4  A    between atoms: C_4  and  C_8 
REMARK    5  A    between atoms: C_5  and  C_11 
REMARK    6  A    between atoms: C_6  and  C_7 
REMARK    7  A    between atoms: C_6  and  C_9 
REMARK    8  A    between atoms: C_7  and  C_10 
REMARK    9  A    between atoms: C_8  and  C_12 
REMARK   10  A    between atoms: C_9  and  C_13 
REMARK   11  A    between atoms: C_10  and  C_14 
REMARK   12  A    between atoms: C_11  and  C_15 
REMARK   13  A    between atoms: C_12  and  C_16 
REMARK   14  A    between atoms: C_13  and  C_17 
REMARK   15  A    between atoms: C_14  and  C_18 
REMARK   16  A    between atoms: C_18  and  C_20 
ROOT
HETATM    1  O   UNL     1     -38.073  -3.753 -16.255  1.00  0.00    -0.776 OA
HETATM    2  H   UNL     1     -38.628  -3.048 -15.893  1.00  0.00     0.167 HD
ENDROOT
BRANCH   1   3
HETATM    3  C   UNL     1     -37.301  -4.523 -15.460  1.00  0.00     0.139 C 
HETATM    4  O   UNL     1     -37.504  -4.542 -14.253  1.00  0.00    -0.650 OA
BRANCH   3   5
HETATM    5  C   UNL     1     -36.202  -5.345 -16.080  1.00  0.00     0.110 C 
BRANCH   5   6
HETATM    6  C   UNL     1     -36.061  -6.737 -15.449  1.00  0.00     0.010 C 
BRANCH   6   7
HETATM    7  C   UNL     1     -35.025  -7.580 -16.203  1.00  0.00     0.001 C 
BRANCH   7   8
HETATM    8  C   UNL     1     -35.528  -9.013 -16.403  1.00  0.00     0.000 C 
BRANCH   8   9
HETATM    9  C   UNL     1     -34.769  -9.711 -17.538  1.00  0.00     0.000 C 
BRANCH   9  10
HETATM   10  C   UNL     1     -35.495  -9.523 -18.874  1.00  0.00     0.004 C 
BRANCH  10  11
HETATM   11  C   UNL     1     -34.588  -8.862 -19.914  1.00  0.00     0.027 C 
BRANCH  11  12
HETATM   12  C   UNL     1     -34.842  -7.374 -19.929  1.00  0.00    -0.031 C 
HETATM   13  C   UNL     1     -35.485  -6.675 -20.886  1.00  0.00    -0.031 C 
BRANCH  13  14
HETATM   14  C   UNL     1     -36.090  -7.220 -22.163  1.00  0.00     0.027 C 
BRANCH  14  15
HETATM   15  C   UNL     1     -37.627  -7.151 -22.125  1.00  0.00     0.004 C 
BRANCH  15  16
HETATM   16  C   UNL     1     -38.303  -8.384 -21.492  1.00  0.00     0.000 C 
BRANCH  16  17
HETATM   17  C   UNL     1     -39.469  -8.022 -20.557  1.00  0.00     0.000 C 
BRANCH  17  18
HETATM   18  C   UNL     1     -39.122  -6.809 -19.684  1.00  0.00     0.000 C 
BRANCH  18  19
HETATM   19  C   UNL     1     -38.307  -7.231 -18.455  1.00  0.00    -0.000 C 
BRANCH  19  20
HETATM   20  C   UNL     1     -38.820  -8.557 -17.882  1.00  0.00    -0.005 C 
HETATM   21  C   UNL     1     -39.754  -8.322 -16.700  1.00  0.00     0.005 C 
ENDBRANCH  19  20
ENDBRANCH  18  19
ENDBRANCH  17  18
ENDBRANCH  16  17
ENDBRANCH  15  16
ENDBRANCH  14  15
ENDBRANCH  13  14
ENDBRANCH  11  12
ENDBRANCH  10  11
ENDBRANCH   9  10
ENDBRANCH   8   9
ENDBRANCH   7   8
ENDBRANCH   6   7
ENDBRANCH   5   6
ENDBRANCH   3   5
ENDBRANCH   1   3
TORSDOF 16
ENDMDL
MODEL 14
REMARK VINA RESULT:      -4.4     34.394     36.928
REMARK  16 active torsions:
REMARK  status: ('A' for Active; 'I' for Inactive)
REMARK    1  A    between atoms: O_1  and  C_20 
REMARK    2  A    between atoms: C_3  and  C_4 
REMARK    3  A    between atoms: C_3  and  C_5 
REMARK    4  A    between atoms: C_4  and  C_8 
REMARK    5  A    between atoms: C_5  and  C_11 
REMARK    6  A    between atoms: C_6  and  C_7 
REMARK    7  A    between atoms: C_6  and  C_9 
REMARK    8  A    between atoms: C_7  and  C_10 
REMARK    9  A    between atoms: C_8  and  C_12 
REMARK   10  A    between atoms: C_9  and  C_13 
REMARK   11  A    between atoms: C_10  and  C_14 
REMARK   12  A    between atoms: C_11  and  C_15 
REMARK   13  A    between atoms: C_12  and  C_16 
REMARK   14  A    between atoms: C_13  and  C_17 
REMARK   15  A    between atoms: C_14  and  C_18 
REMARK   16  A    between atoms: C_18  and  C_20 
ROOT
HETATM    1  O   UNL     1     -34.301  -7.522 -17.222  1.00  0.00    -0.776 OA
HETATM    2  H   UNL     1     -33.991  -8.194 -16.597  1.00  0.00     0.167 HD
ENDROOT
BRANCH   1   3
HETATM    3  C   UNL     1     -35.363  -7.743 -18.024  1.00  0.00     0.139 C 
HETATM    4  O   UNL     1     -35.258  -7.571 -19.231  1.00  0.00    -0.650 OA
BRANCH   3   5
HETATM    5  C   UNL     1     -36.661  -8.198 -17.410  1.00  0.00     0.110 C 
BRANCH   5   6
HETATM    6  C   UNL     1     -37.813  -7.209 -17.633  1.00  0.00     0.010 C 
BRANCH   6   7
HETATM    7  C   UNL     1     -38.232  -6.547 -16.315  1.00  0.00     0.001 C 
BRANCH   7   8
HETATM    8  C   UNL     1     -37.754  -5.092 -16.257  1.00  0.00     0.000 C 
BRANCH   8   9
HETATM    9  C   UNL     1     -37.433  -4.674 -14.817  1.00  0.00     0.000 C 
BRANCH   9  10
HETATM   10  C   UNL     1     -37.844  -5.770 -13.829  1.00  0.00     0.004 C 
BRANCH  10  11
HETATM   11  C   UNL     1     -36.966  -5.749 -12.575  1.00  0.00     0.027 C 
BRANCH  11  12
HETATM   12  C   UNL     1     -37.494  -4.714 -11.610  1.00  0.00    -0.031 C 
HETATM   13  C   UNL     1     -38.291  -4.937 -10.545  1.00  0.00    -0.031 C 
BRANCH  13  14
HETATM   14  C   UNL     1     -38.842  -6.269 -10.081  1.00  0.00     0.027 C 
BRANCH  14  15
HETATM   15  C   UNL     1     -38.014  -6.837  -8.914  1.00  0.00     0.004 C 
BRANCH  15  16
HETATM   16  C   UNL     1     -37.382  -5.766  -8.002  1.00  0.00     0.000 C 
BRANCH  16  17
HETATM   17  C   UNL     1     -37.844  -5.867  -6.539  1.00  0.00     0.000 C 
BRANCH  17  18
HETATM   18  C   UNL     1     -37.577  -4.558  -5.783  1.00  0.00     0.000 C 
BRANCH  18  19
HETATM   19  C   UNL     1     -37.636  -4.777  -4.267  1.00  0.00    -0.000 C 
BRANCH  19  20
HETATM   20  C   UNL     1     -37.935  -6.243  -3.932  1.00  0.00    -0.005 C 
HETATM   21  C   UNL     1     -36.901  -6.808  -2.962  1.00  0.00     0.005 C 
ENDBRANCH  19  20
ENDBRANCH  18  19
ENDBRANCH  17  18
ENDBRANCH  16  17
ENDBRANCH  15  16
ENDBRANCH  14  15
ENDBRANCH  13  14
ENDBRANCH  11  12
ENDBRANCH  10  11
ENDBRANCH   9  10
ENDBRANCH   8   9
ENDBRANCH   7   8
ENDBRANCH   6   7
ENDBRANCH   5   6
ENDBRANCH   3   5
ENDBRANCH   1   3
TORSDOF 16
ENDMDL
MODEL 15
REMARK VINA RESULT:      -4.3     34.179     35.948
REMARK  16 active torsions:
REMARK  status: ('A' for Active; 'I' for Inactive)
REMARK    1  A    between atoms: O_1  and  C_20 
REMARK    2  A    between atoms: C_3  and  C_4 
REMARK    3  A    between atoms: C_3  and  C_5 
REMARK    4  A    between atoms: C_4  and  C_8 
REMARK    5  A    between atoms: C_5  and  C_11 
REMARK    6  A    between atoms: C_6  and  C_7 
REMARK    7  A    between atoms: C_6  and  C_9 
REMARK    8  A    between atoms: C_7  and  C_10 
REMARK    9  A    between atoms: C_8  and  C_12 
REMARK   10  A    between atoms: C_9  and  C_13 
REMARK   11  A    between atoms: C_10  and  C_14 
REMARK   12  A    between atoms: C_11  and  C_15 
REMARK   13  A    between atoms: C_12  and  C_16 
REMARK   14  A    between atoms: C_13  and  C_17 
REMARK   15  A    between atoms: C_14  and  C_18 
REMARK   16  A    between atoms: C_18  and  C_20 
ROOT
HETATM    1  O   UNL     1     -41.267  -9.142 -12.498  1.00  0.00    -0.776 OA
HETATM    2  H   UNL     1     -41.727  -8.334 -12.227  1.00  0.00     0.167 HD
ENDROOT
BRANCH   1   3
HETATM    3  C   UNL     1     -40.004  -9.400 -12.102  1.00  0.00     0.139 C 
HETATM    4  O   UNL     1     -39.613 -10.558 -12.035  1.00  0.00    -0.650 OA
BRANCH   3   5
HETATM    5  C   UNL     1     -39.098  -8.250 -11.750  1.00  0.00     0.110 C 
BRANCH   5   6
HETATM    6  C   UNL     1     -38.601  -8.296 -10.298  1.00  0.00     0.010 C 
BRANCH   6   7
HETATM    7  C   UNL     1     -38.972  -7.009  -9.549  1.00  0.00     0.001 C 
BRANCH   7   8
HETATM    8  C   UNL     1     -38.025  -5.865  -9.927  1.00  0.00     0.000 C 
BRANCH   8   9
HETATM    9  C   UNL     1     -37.523  -5.130  -8.679  1.00  0.00     0.000 C 
BRANCH   9  10
HETATM   10  C   UNL     1     -37.761  -5.970  -7.420  1.00  0.00     0.004 C 
BRANCH  10  11
HETATM   11  C   UNL     1     -36.443  -6.479  -6.831  1.00  0.00     0.027 C 
BRANCH  11  12
HETATM   12  C   UNL     1     -36.286  -7.947  -7.146  1.00  0.00    -0.031 C 
HETATM   13  C   UNL     1     -35.516  -8.486  -8.114  1.00  0.00    -0.031 C 
BRANCH  13  14
HETATM   14  C   UNL     1     -34.645  -7.744  -9.106  1.00  0.00     0.027 C 
BRANCH  14  15
HETATM   15  C   UNL     1     -34.908  -8.224 -10.544  1.00  0.00     0.004 C 
BRANCH  15  16
HETATM   16  C   UNL     1     -34.984  -7.092 -11.589  1.00  0.00     0.000 C 
BRANCH  16  17
HETATM   17  C   UNL     1     -35.565  -7.549 -12.937  1.00  0.00     0.000 C 
BRANCH  17  18
HETATM   18  C   UNL     1     -36.535  -6.504 -13.503  1.00  0.00     0.000 C 
BRANCH  18  19
HETATM   19  C   UNL     1     -36.936  -6.849 -14.943  1.00  0.00    -0.000 C 
BRANCH  19  20
HETATM   20  C   UNL     1     -36.683  -5.666 -15.885  1.00  0.00    -0.005 C 
HETATM   21  C   UNL     1     -37.512  -4.452 -15.478  1.00  0.00     0.005 C 
ENDBRANCH  19  20
ENDBRANCH  18  19
ENDBRANCH  17  18
ENDBRANCH  16  17
ENDBRANCH  15  16
ENDBRANCH  14  15
ENDBRANCH  13  14
ENDBRANCH  11  12
ENDBRANCH  10  11
ENDBRANCH   9  10
ENDBRANCH   8   9
ENDBRANCH   7   8
ENDBRANCH   6   7
ENDBRANCH   5   6
ENDBRANCH   3   5
ENDBRANCH   1   3
TORSDOF 16
ENDMDL
MODEL 16
REMARK VINA RESULT:      -4.3     34.107     35.865
REMARK  16 active torsions:
REMARK  status: ('A' for Active; 'I' for Inactive)
REMARK    1  A    between atoms: O_1  and  C_20 
REMARK    2  A    between atoms: C_3  and  C_4 
REMARK    3  A    between atoms: C_3  and  C_5 
REMARK    4  A    between atoms: C_4  and  C_8 
REMARK    5  A    between atoms: C_5  and  C_11 
REMARK    6  A    between atoms: C_6  and  C_7 
REMARK    7  A    between atoms: C_6  and  C_9 
REMARK    8  A    between atoms: C_7  and  C_10 
REMARK    9  A    between atoms: C_8  and  C_12 
REMARK   10  A    between atoms: C_9  and  C_13 
REMARK   11  A    between atoms: C_10  and  C_14 
REMARK   12  A    between atoms: C_11  and  C_15 
REMARK   13  A    between atoms: C_12  and  C_16 
REMARK   14  A    between atoms: C_13  and  C_17 
REMARK   15  A    between atoms: C_14  and  C_18 
REMARK   16  A    between atoms: C_18  and  C_20 
ROOT
HETATM    1  O   UNL     1     -36.692  -9.060 -24.276  1.00  0.00    -0.776 OA
HETATM    2  H   UNL     1     -36.666  -9.220 -25.231  1.00  0.00     0.167 HD
ENDROOT
BRANCH   1   3
HETATM    3  C   UNL     1     -37.789  -8.555 -23.675  1.00  0.00     0.139 C 
HETATM    4  O   UNL     1     -38.857  -8.540 -24.273  1.00  0.00    -0.650 OA
BRANCH   3   5
HETATM    5  C   UNL     1     -37.673  -8.017 -22.273  1.00  0.00     0.110 C 
BRANCH   5   6
HETATM    6  C   UNL     1     -36.774  -6.777 -22.175  1.00  0.00     0.010 C 
BRANCH   6   7
HETATM    7  C   UNL     1     -37.417  -5.576 -22.880  1.00  0.00     0.001 C 
BRANCH   7   8
HETATM    8  C   UNL     1     -37.703  -4.447 -21.884  1.00  0.00     0.000 C 
BRANCH   8   9
HETATM    9  C   UNL     1     -36.980  -4.687 -20.554  1.00  0.00     0.000 C 
BRANCH   9  10
HETATM   10  C   UNL     1     -37.969  -4.653 -19.384  1.00  0.00     0.004 C 
BRANCH  10  11
HETATM   11  C   UNL     1     -37.490  -5.526 -18.222  1.00  0.00     0.027 C 
BRANCH  11  12
HETATM   12  C   UNL     1     -37.849  -6.967 -18.495  1.00  0.00    -0.031 C 
HETATM   13  C   UNL     1     -36.991  -7.990 -18.683  1.00  0.00    -0.031 C 
BRANCH  13  14
HETATM   14  C   UNL     1     -35.478  -7.926 -18.672  1.00  0.00     0.027 C 
BRANCH  14  15
HETATM   15  C   UNL     1     -34.915  -8.322 -17.296  1.00  0.00     0.004 C 
BRANCH  15  16
HETATM   16  C   UNL     1     -34.590  -7.129 -16.374  1.00  0.00     0.000 C 
BRANCH  16  17
HETATM   17  C   UNL     1     -35.154  -7.291 -14.952  1.00  0.00     0.000 C 
BRANCH  17  18
HETATM   18  C   UNL     1     -36.662  -7.571 -14.984  1.00  0.00     0.000 C 
BRANCH  18  19
HETATM   19  C   UNL     1     -37.453  -6.393 -14.403  1.00  0.00    -0.000 C 
BRANCH  19  20
HETATM   20  C   UNL     1     -38.884  -6.366 -14.950  1.00  0.00    -0.005 C 
HETATM   21  C   UNL     1     -39.573  -7.713 -14.759  1.00  0.00     0.005 C 
ENDBRANCH  19  20
ENDBRANCH  18  19
ENDBRANCH  17  18
ENDBRANCH  16  17
ENDBRANCH  15  16
ENDBRANCH  14  15
ENDBRANCH  13  14
ENDBRANCH  11  12
ENDBRANCH  10  11
ENDBRANCH   9  10
ENDBRANCH   8   9
ENDBRANCH   7   8
ENDBRANCH   6   7
ENDBRANCH   5   6
ENDBRANCH   3   5
ENDBRANCH   1   3
TORSDOF 16
ENDMDL
MODEL 17
REMARK VINA RESULT:      -4.3     33.330     34.469
REMARK  16 active torsions:
REMARK  status: ('A' for Active; 'I' for Inactive)
REMARK    1  A    between atoms: O_1  and  C_20 
REMARK    2  A    between atoms: C_3  and  C_4 
REMARK    3  A    between atoms: C_3  and  C_5 
REMARK    4  A    between atoms: C_4  and  C_8 
REMARK    5  A    between atoms: C_5  and  C_11 
REMARK    6  A    between atoms: C_6  and  C_7 
REMARK    7  A    between atoms: C_6  and  C_9 
REMARK    8  A    between atoms: C_7  and  C_10 
REMARK    9  A    between atoms: C_8  and  C_12 
REMARK   10  A    between atoms: C_9  and  C_13 
REMARK   11  A    between atoms: C_10  and  C_14 
REMARK   12  A    between atoms: C_11  and  C_15 
REMARK   13  A    between atoms: C_12  and  C_16 
REMARK   14  A    between atoms: C_13  and  C_17 
REMARK   15  A    between atoms: C_14  and  C_18 
REMARK   16  A    between atoms: C_18  and  C_20 
ROOT
HETATM    1  O   UNL     1     -36.845 -11.269 -14.359  1.00  0.00    -0.776 OA
HETATM    2  H   UNL     1     -37.244 -10.726 -15.054  1.00  0.00     0.167 HD
ENDROOT
BRANCH   1   3
HETATM    3  C   UNL     1     -36.600 -10.771 -13.129  1.00  0.00     0.139 C 
HETATM    4  O   UNL     1     -36.525 -11.528 -12.171  1.00  0.00    -0.650 OA
BRANCH   3   5
HETATM    5  C   UNL     1     -36.422  -9.284 -12.964  1.00  0.00     0.110 C 
BRANCH   5   6
HETATM    6  C   UNL     1     -34.949  -8.856 -12.903  1.00  0.00     0.010 C 
BRANCH   6   7
HETATM    7  C   UNL     1     -34.813  -7.434 -12.346  1.00  0.00     0.001 C 
BRANCH   7   8
HETATM    8  C   UNL     1     -35.546  -7.298 -11.007  1.00  0.00     0.000 C 
BRANCH   8   9
HETATM    9  C   UNL     1     -36.242  -5.936 -10.895  1.00  0.00     0.000 C 
BRANCH   9  10
HETATM   10  C   UNL     1     -37.600  -5.960 -11.604  1.00  0.00     0.004 C 
BRANCH  10  11
HETATM   11  C   UNL     1     -37.545  -5.218 -12.942  1.00  0.00     0.027 C 
BRANCH  11  12
HETATM   12  C   UNL     1     -38.107  -6.102 -14.029  1.00  0.00    -0.031 C 
HETATM   13  C   UNL     1     -37.521  -6.404 -15.205  1.00  0.00    -0.031 C 
BRANCH  13  14
HETATM   14  C   UNL     1     -36.175  -5.922 -15.705  1.00  0.00     0.027 C 
BRANCH  14  15
HETATM   15  C   UNL     1     -35.310  -7.096 -16.195  1.00  0.00     0.004 C 
BRANCH  15  16
HETATM   16  C   UNL     1     -35.898  -7.863 -17.397  1.00  0.00     0.000 C 
BRANCH  16  17
HETATM   17  C   UNL     1     -35.945  -7.026 -18.686  1.00  0.00     0.000 C 
BRANCH  17  18
HETATM   18  C   UNL     1     -37.384  -6.619 -19.029  1.00  0.00     0.000 C 
BRANCH  18  19
HETATM   19  C   UNL     1     -37.519  -5.094 -19.108  1.00  0.00    -0.000 C 
BRANCH  19  20
HETATM   20  C   UNL     1     -38.148  -4.664 -20.438  1.00  0.00    -0.005 C 
HETATM   21  C   UNL     1     -37.671  -5.550 -21.584  1.00  0.00     0.005 C 
ENDBRANCH  19  20
ENDBRANCH  18  19
ENDBRANCH  17  18
ENDBRANCH  16  17
ENDBRANCH  15  16
ENDBRANCH  14  15
ENDBRANCH  13  14
ENDBRANCH  11  12
ENDBRANCH  10  11
ENDBRANCH   9  10
ENDBRANCH   8   9
ENDBRANCH   7   8
ENDBRANCH   6   7
ENDBRANCH   5   6
ENDBRANCH   3   5
ENDBRANCH   1   3
TORSDOF 16
ENDMDL
MODEL 18
REMARK VINA RESULT:      -4.3     34.334     35.286
REMARK  16 active torsions:
REMARK  status: ('A' for Active; 'I' for Inactive)
REMARK    1  A    between atoms: O_1  and  C_20 
REMARK    2  A    between atoms: C_3  and  C_4 
REMARK    3  A    between atoms: C_3  and  C_5 
REMARK    4  A    between atoms: C_4  and  C_8 
REMARK    5  A    between atoms: C_5  and  C_11 
REMARK    6  A    between atoms: C_6  and  C_7 
REMARK    7  A    between atoms: C_6  and  C_9 
REMARK    8  A    between atoms: C_7  and  C_10 
REMARK    9  A    between atoms: C_8  and  C_12 
REMARK   10  A    between atoms: C_9  and  C_13 
REMARK   11  A    between atoms: C_10  and  C_14 
REMARK   12  A    between atoms: C_11  and  C_15 
REMARK   13  A    between atoms: C_12  and  C_16 
REMARK   14  A    between atoms: C_13  and  C_17 
REMARK   15  A    between atoms: C_14  and  C_18 
REMARK   16  A    between atoms: C_18  and  C_20 
ROOT
HETATM    1  O   UNL     1     -29.898  20.786 -13.340  1.00  0.00    -0.776 OA
HETATM    2  H   UNL     1     -30.617  21.294 -13.742  1.00  0.00     0.167 HD
ENDROOT
BRANCH   1   3
HETATM    3  C   UNL     1     -30.137  19.854 -12.394  1.00  0.00     0.139 C 
HETATM    4  O   UNL     1     -31.252  19.764 -11.897  1.00  0.00    -0.650 OA
BRANCH   3   5
HETATM    5  C   UNL     1     -29.018  18.939 -11.970  1.00  0.00     0.110 C 
BRANCH   5   6
HETATM    6  C   UNL     1     -28.333  18.236 -13.150  1.00  0.00     0.010 C 
BRANCH   6   7
HETATM    7  C   UNL     1     -29.351  17.451 -13.987  1.00  0.00     0.001 C 
BRANCH   7   8
HETATM    8  C   UNL     1     -29.842  16.212 -13.230  1.00  0.00     0.000 C 
BRANCH   8   9
HETATM    9  C   UNL     1     -29.817  14.971 -14.129  1.00  0.00     0.000 C 
BRANCH   9  10
HETATM   10  C   UNL     1     -29.234  13.769 -13.379  1.00  0.00     0.004 C 
BRANCH  10  11
HETATM   11  C   UNL     1     -28.999  14.093 -11.901  1.00  0.00     0.027 C 
BRANCH  11  12
HETATM   12  C   UNL     1     -27.701  13.466 -11.450  1.00  0.00    -0.031 C 
HETATM   13  C   UNL     1     -26.511  14.085 -11.318  1.00  0.00    -0.031 C 
BRANCH  13  14
HETATM   14  C   UNL     1     -26.202  15.540 -11.599  1.00  0.00     0.027 C 
BRANCH  14  15
HETATM   15  C   UNL     1     -25.372  15.695 -12.885  1.00  0.00     0.004 C 
BRANCH  15  16
HETATM   16  C   UNL     1     -26.165  15.456 -14.187  1.00  0.00     0.000 C 
BRANCH  16  17
HETATM   17  C   UNL     1     -25.412  14.582 -15.203  1.00  0.00     0.000 C 
BRANCH  17  18
HETATM   18  C   UNL     1     -26.201  13.307 -15.528  1.00  0.00     0.000 C 
BRANCH  18  19
HETATM   19  C   UNL     1     -27.339  13.601 -16.513  1.00  0.00    -0.000 C 
BRANCH  19  20
HETATM   20  C   UNL     1     -26.862  14.512 -17.651  1.00  0.00    -0.005 C 
HETATM   21  C   UNL     1     -26.281  13.696 -18.801  1.00  0.00     0.005 C 
ENDBRANCH  19  20
ENDBRANCH  18  19
ENDBRANCH  17  18
ENDBRANCH  16  17
ENDBRANCH  15  16
ENDBRANCH  14  15
ENDBRANCH  13  14
ENDBRANCH  11  12
ENDBRANCH  10  11
ENDBRANCH   9  10
ENDBRANCH   8   9
ENDBRANCH   7   8
ENDBRANCH   6   7
ENDBRANCH   5   6
ENDBRANCH   3   5
ENDBRANCH   1   3
TORSDOF 16
ENDMDL
MODEL 19
REMARK VINA RESULT:      -4.3     33.660     34.401
REMARK  16 active torsions:
REMARK  status: ('A' for Active; 'I' for Inactive)
REMARK    1  A    between atoms: O_1  and  C_20 
REMARK    2  A    between atoms: C_3  and  C_4 
REMARK    3  A    between atoms: C_3  and  C_5 
REMARK    4  A    between atoms: C_4  and  C_8 
REMARK    5  A    between atoms: C_5  and  C_11 
REMARK    6  A    between atoms: C_6  and  C_7 
REMARK    7  A    between atoms: C_6  and  C_9 
REMARK    8  A    between atoms: C_7  and  C_10 
REMARK    9  A    between atoms: C_8  and  C_12 
REMARK   10  A    between atoms: C_9  and  C_13 
REMARK   11  A    between atoms: C_10  and  C_14 
REMARK   12  A    between atoms: C_11  and  C_15 
REMARK   13  A    between atoms: C_12  and  C_16 
REMARK   14  A    between atoms: C_13  and  C_17 
REMARK   15  A    between atoms: C_14  and  C_18 
REMARK   16  A    between atoms: C_18  and  C_20 
ROOT
HETATM    1  O   UNL     1     -25.924  17.440 -15.711  1.00  0.00    -0.776 OA
HETATM    2  H   UNL     1     -25.777  17.125 -16.614  1.00  0.00     0.167 HD
ENDROOT
BRANCH   1   3
HETATM    3  C   UNL     1     -26.911  16.937 -14.941  1.00  0.00     0.139 C 
HETATM    4  O   UNL     1     -27.749  17.689 -14.460  1.00  0.00    -0.650 OA
BRANCH   3   5
HETATM    5  C   UNL     1     -26.957  15.453 -14.689  1.00  0.00     0.110 C 
BRANCH   5   6
HETATM    6  C   UNL     1     -26.134  14.644 -15.700  1.00  0.00     0.010 C 
BRANCH   6   7
HETATM    7  C   UNL     1     -27.021  13.652 -16.463  1.00  0.00     0.001 C 
BRANCH   7   8
HETATM    8  C   UNL     1     -26.502  13.438 -17.888  1.00  0.00     0.000 C 
BRANCH   8   9
HETATM    9  C   UNL     1     -25.842  14.711 -18.432  1.00  0.00     0.000 C 
BRANCH   9  10
HETATM   10  C   UNL     1     -25.554  14.576 -19.931  1.00  0.00     0.004 C 
BRANCH  10  11
HETATM   11  C   UNL     1     -26.114  13.266 -20.491  1.00  0.00     0.027 C 
BRANCH  11  12
HETATM   12  C   UNL     1     -26.948  13.560 -21.715  1.00  0.00    -0.031 C 
HETATM   13  C   UNL     1     -28.278  13.779 -21.751  1.00  0.00    -0.031 C 
BRANCH  13  14
HETATM   14  C   UNL     1     -29.236  13.771 -20.578  1.00  0.00     0.027 C 
BRANCH  14  15
HETATM   15  C   UNL     1     -29.359  15.171 -19.952  1.00  0.00     0.004 C 
BRANCH  15  16
HETATM   16  C   UNL     1     -29.743  15.167 -18.458  1.00  0.00     0.000 C 
BRANCH  16  17
HETATM   17  C   UNL     1     -29.335  16.455 -17.724  1.00  0.00     0.000 C 
BRANCH  17  18
HETATM   18  C   UNL     1     -28.181  17.162 -18.448  1.00  0.00     0.000 C 
BRANCH  18  19
HETATM   19  C   UNL     1     -28.435  18.671 -18.545  1.00  0.00    -0.000 C 
BRANCH  19  20
HETATM   20  C   UNL     1     -28.378  19.148 -20.001  1.00  0.00    -0.005 C 
HETATM   21  C   UNL     1     -27.506  18.227 -20.848  1.00  0.00     0.005 C 
ENDBRANCH  19  20
ENDBRANCH  18  19
ENDBRANCH  17  18
ENDBRANCH  16  17
ENDBRANCH  15  16
ENDBRANCH  14  15
ENDBRANCH  13  14
ENDBRANCH  11  12
ENDBRANCH  10  11
ENDBRANCH   9  10
ENDBRANCH   8   9
ENDBRANCH   7   8
ENDBRANCH   6   7
ENDBRANCH   5   6
ENDBRANCH   3   5
ENDBRANCH   1   3
TORSDOF 16
ENDMDL
MODEL 20
REMARK VINA RESULT:      -4.2     24.392     25.508
REMARK  16 active torsions:
REMARK  status: ('A' for Active; 'I' for Inactive)
REMARK    1  A    between atoms: O_1  and  C_20 
REMARK    2  A    between atoms: C_3  and  C_4 
REMARK    3  A    between atoms: C_3  and  C_5 
REMARK    4  A    between atoms: C_4  and  C_8 
REMARK    5  A    between atoms: C_5  and  C_11 
REMARK    6  A    between atoms: C_6  and  C_7 
REMARK    7  A    between atoms: C_6  and  C_9 
REMARK    8  A    between atoms: C_7  and  C_10 
REMARK    9  A    between atoms: C_8  and  C_12 
REMARK   10  A    between atoms: C_9  and  C_13 
REMARK   11  A    between atoms: C_10  and  C_14 
REMARK   12  A    between atoms: C_11  and  C_15 
REMARK   13  A    between atoms: C_12  and  C_16 
REMARK   14  A    between atoms: C_13  and  C_17 
REMARK   15  A    between atoms: C_14  and  C_18 
REMARK   16  A    between atoms: C_18  and  C_20 
ROOT
HETATM    1  O   UNL     1      -6.471  16.049 -21.255  1.00  0.00    -0.776 OA
HETATM    2  H   UNL     1      -7.146  15.372 -21.404  1.00  0.00     0.167 HD
ENDROOT
BRANCH   1   3
HETATM    3  C   UNL     1      -5.163  15.732 -21.159  1.00  0.00     0.139 C 
HETATM    4  O   UNL     1      -4.466  15.720 -22.164  1.00  0.00    -0.650 OA
BRANCH   3   5
HETATM    5  C   UNL     1      -4.589  15.397 -19.807  1.00  0.00     0.110 C 
BRANCH   5   6
HETATM    6  C   UNL     1      -5.564  14.617 -18.914  1.00  0.00     0.010 C 
BRANCH   6   7
HETATM    7  C   UNL     1      -5.874  15.394 -17.628  1.00  0.00     0.001 C 
BRANCH   7   8
HETATM    8  C   UNL     1      -4.917  16.579 -17.462  1.00  0.00     0.000 C 
BRANCH   8   9
HETATM    9  C   UNL     1      -4.439  16.703 -16.010  1.00  0.00     0.000 C 
BRANCH   9  10
HETATM   10  C   UNL     1      -4.433  15.334 -15.322  1.00  0.00     0.004 C 
BRANCH  10  11
HETATM   11  C   UNL     1      -5.205  15.369 -14.001  1.00  0.00     0.027 C 
BRANCH  11  12
HETATM   12  C   UNL     1      -6.448  14.520 -14.124  1.00  0.00    -0.031 C 
HETATM   13  C   UNL     1      -7.724  14.956 -14.124  1.00  0.00    -0.031 C 
BRANCH  13  14
HETATM   14  C   UNL     1      -8.200  16.387 -13.994  1.00  0.00     0.027 C 
BRANCH  14  15
HETATM   15  C   UNL     1      -8.324  17.060 -15.373  1.00  0.00     0.004 C 
BRANCH  15  16
HETATM   16  C   UNL     1      -7.765  18.496 -15.433  1.00  0.00     0.000 C 
BRANCH  16  17
HETATM   17  C   UNL     1      -7.558  19.006 -16.868  1.00  0.00     0.000 C 
BRANCH  17  18
HETATM   18  C   UNL     1      -8.835  19.660 -17.412  1.00  0.00     0.000 C 
BRANCH  18  19
HETATM   19  C   UNL     1      -9.307  18.963 -18.694  1.00  0.00    -0.000 C 
BRANCH  19  20
HETATM   20  C   UNL     1      -8.462  17.717 -18.987  1.00  0.00    -0.005 C 
HETATM   21  C   UNL     1      -9.324  16.459 -18.998  1.00  0.00     0.005 C 
ENDBRANCH  19  20
ENDBRANCH  18  19
ENDBRANCH  17  18
ENDBRANCH  16  17
ENDBRANCH  15  16
ENDBRANCH  14  15
ENDBRANCH  13  14
ENDBRANCH  11  12
ENDBRANCH  10  11
ENDBRANCH   9  10
ENDBRANCH   8   9
ENDBRANCH   7   8
ENDBRANCH   6   7
ENDBRANCH   5   6
ENDBRANCH   3   5
ENDBRANCH   1   3
TORSDOF 16
ENDMDL
