MODEL 1
REMARK VINA RESULT:      -9.0      0.000      0.000
REMARK  5 active torsions:
REMARK  status: ('A' for Active; 'I' for Inactive)
REMARK    1  A    between atoms: S_3  and  O_4 
REMARK    2  A    between atoms: S_3  and  C_15 
REMARK    3  A    between atoms: N_9  and  C_30 
REMARK    4  A    between atoms: C_11  and  C_13 
REMARK    5  A    between atoms: C_18  and  C_25 
ROOT
HETATM    1  S   UNL     1     -35.434  -7.834 -15.720  1.00  0.00    -0.068 SA
HETATM    2  N   UNL     1     -37.129  -5.997 -15.372  1.00  0.00    -0.344 N 
HETATM    3  C   UNL     1     -36.952  -6.144 -16.727  1.00  0.00     0.053 A 
HETATM    4  C   UNL     1     -36.324  -6.855 -14.661  1.00  0.00     0.087 A 
HETATM    5  C   UNL     1     -36.043  -7.124 -17.106  1.00  0.00     0.057 A 
HETATM    6  C   UNL     1     -35.749  -7.412 -18.447  1.00  0.00     0.097 A 
HETATM    7  C   UNL     1     -36.419  -6.660 -19.446  1.00  0.00    -0.037 A 
HETATM    8  C   UNL     1     -37.619  -5.407 -17.718  1.00  0.00     0.031 A 
HETATM    9  C   UNL     1     -38.125  -5.061 -14.830  1.00  0.00     0.157 C 
HETATM   10  C   UNL     1     -37.348  -5.666 -19.066  1.00  0.00     0.011 A 
HETATM   11  C   UNL     1     -36.165  -6.897 -20.911  1.00  0.00     0.050 C 
ENDROOT
BRANCH   4  12
HETATM   12  C   UNL     1     -36.155  -6.963 -13.177  1.00  0.00    -0.001 A 
HETATM   13  C   UNL     1     -37.100  -6.448 -12.260  1.00  0.00     0.035 A 
HETATM   14  C   UNL     1     -36.852  -6.568 -10.896  1.00  0.00     0.034 A 
HETATM   15  S   UNL     1     -37.810  -6.055  -9.630  1.00  0.00    -0.069 SA
HETATM   16  C   UNL     1     -35.712  -7.163 -10.389  1.00  0.00     0.052 A 
HETATM   17  C   UNL     1     -36.726  -6.592  -8.438  1.00  0.00     0.087 A 
HETATM   18  N   UNL     1     -35.636  -7.202  -9.019  1.00  0.00    -0.344 N 
HETATM   19  C   UNL     1     -34.526  -7.881  -8.336  1.00  0.00     0.157 C 
HETATM   20  C   UNL     1     -34.755  -7.671 -11.279  1.00  0.00     0.032 A 
HETATM   21  C   UNL     1     -34.976  -7.558 -12.662  1.00  0.00     0.016 A 
BRANCH  17  22
HETATM   22  C   UNL     1     -36.992  -6.353  -6.984  1.00  0.00    -0.002 A 
HETATM   23  C   UNL     1     -37.199  -5.071  -6.443  1.00  0.00     0.016 A 
HETATM   24  C   UNL     1     -37.468  -4.896  -5.083  1.00  0.00     0.030 A 
HETATM   25  C   UNL     1     -37.551  -5.998  -4.205  1.00  0.00     0.029 A 
HETATM   26  C   UNL     1     -37.365  -7.283  -4.755  1.00  0.00     0.030 A 
HETATM   27  C   UNL     1     -37.100  -7.455  -6.116  1.00  0.00     0.016 A 
BRANCH  25  28
HETATM   28  N   UNL     1     -37.830  -5.817  -2.800  1.00  0.00    -0.390 N 
HETATM   29  C   UNL     1     -38.216  -6.949  -1.967  1.00  0.00     0.149 C 
HETATM   30  C   UNL     1     -37.731  -4.499  -2.186  1.00  0.00     0.149 C 
ENDBRANCH  25  28
ENDBRANCH  17  22
ENDBRANCH   4  12
BRANCH   6  31
HETATM   31  S   UNL     1     -34.552  -8.700 -18.867  1.00  0.00     0.131 S 
HETATM   32  O   UNL     1     -34.974  -9.520 -20.097  1.00  0.00    -0.598 OA
HETATM   33  O   UNL     1     -33.227  -8.097 -19.357  1.00  0.00    -0.598 OA
BRANCH  31  34
HETATM   34  O   UNL     1     -34.077  -9.863 -17.693  1.00  0.00    -0.292 OA
HETATM   35  H   UNL     1     -33.887 -10.687 -18.209  1.00  0.00     0.232 HD
ENDBRANCH  31  34
ENDBRANCH   6  31
TORSDOF 5
ENDMDL
MODEL 2
REMARK VINA RESULT:      -8.8      0.725      1.235
REMARK  5 active torsions:
REMARK  status: ('A' for Active; 'I' for Inactive)
REMARK    1  A    between atoms: S_3  and  O_4 
REMARK    2  A    between atoms: S_3  and  C_15 
REMARK    3  A    between atoms: N_9  and  C_30 
REMARK    4  A    between atoms: C_11  and  C_13 
REMARK    5  A    between atoms: C_18  and  C_25 
ROOT
HETATM    1  S   UNL     1     -35.454  -7.736 -16.409  1.00  0.00    -0.068 SA
HETATM    2  N   UNL     1     -37.194  -5.948 -16.020  1.00  0.00    -0.344 N 
HETATM    3  C   UNL     1     -37.015  -6.061 -17.378  1.00  0.00     0.053 A 
HETATM    4  C   UNL     1     -36.367  -6.803 -15.328  1.00  0.00     0.087 A 
HETATM    5  C   UNL     1     -36.083  -7.010 -17.779  1.00  0.00     0.057 A 
HETATM    6  C   UNL     1     -35.784  -7.262 -19.126  1.00  0.00     0.097 A 
HETATM    7  C   UNL     1     -36.473  -6.504 -20.108  1.00  0.00    -0.037 A 
HETATM    8  C   UNL     1     -37.701  -5.320 -18.351  1.00  0.00     0.031 A 
HETATM    9  C   UNL     1     -38.211  -5.050 -15.456  1.00  0.00     0.157 C 
HETATM   10  C   UNL     1     -37.426  -5.542 -19.705  1.00  0.00     0.011 A 
HETATM   11  C   UNL     1     -36.215  -6.703 -21.578  1.00  0.00     0.050 C 
ENDROOT
BRANCH   4  12
HETATM   12  C   UNL     1     -36.194  -6.939 -13.847  1.00  0.00    -0.001 A 
HETATM   13  C   UNL     1     -37.140  -6.449 -12.917  1.00  0.00     0.035 A 
HETATM   14  C   UNL     1     -36.887  -6.595 -11.557  1.00  0.00     0.034 A 
HETATM   15  S   UNL     1     -37.845  -6.114 -10.279  1.00  0.00    -0.069 SA
HETATM   16  C   UNL     1     -35.742  -7.191 -11.065  1.00  0.00     0.052 A 
HETATM   17  C   UNL     1     -36.754  -6.667  -9.100  1.00  0.00     0.087 A 
HETATM   18  N   UNL     1     -35.662  -7.257  -9.696  1.00  0.00    -0.344 N 
HETATM   19  C   UNL     1     -34.545  -7.941  -9.030  1.00  0.00     0.157 C 
HETATM   20  C   UNL     1     -34.783  -7.674 -11.967  1.00  0.00     0.032 A 
HETATM   21  C   UNL     1     -35.008  -7.535 -13.347  1.00  0.00     0.016 A 
BRANCH  17  22
HETATM   22  C   UNL     1     -37.018  -6.459  -7.641  1.00  0.00    -0.002 A 
HETATM   23  C   UNL     1     -37.325  -5.202  -7.089  1.00  0.00     0.016 A 
HETATM   24  C   UNL     1     -37.588  -5.057  -5.724  1.00  0.00     0.030 A 
HETATM   25  C   UNL     1     -37.565  -6.167  -4.852  1.00  0.00     0.029 A 
HETATM   26  C   UNL     1     -37.280  -7.429  -5.413  1.00  0.00     0.030 A 
HETATM   27  C   UNL     1     -37.020  -7.571  -6.779  1.00  0.00     0.016 A 
BRANCH  25  28
HETATM   28  N   UNL     1     -37.837  -6.018  -3.442  1.00  0.00    -0.390 N 
HETATM   29  C   UNL     1     -37.630  -4.737  -2.777  1.00  0.00     0.149 C 
HETATM   30  C   UNL     1     -38.322  -7.145  -2.655  1.00  0.00     0.149 C 
ENDBRANCH  25  28
ENDBRANCH  17  22
ENDBRANCH   4  12
BRANCH   6  31
HETATM   31  S   UNL     1     -34.556  -8.511 -19.575  1.00  0.00     0.131 S 
HETATM   32  O   UNL     1     -33.142  -8.151 -19.091  1.00  0.00    -0.598 OA
HETATM   33  O   UNL     1     -34.796  -9.829 -18.823  1.00  0.00    -0.598 OA
BRANCH  31  34
HETATM   34  O   UNL     1     -34.362  -8.990 -21.215  1.00  0.00    -0.292 OA
HETATM   35  H   UNL     1     -34.595  -9.953 -21.231  1.00  0.00     0.232 HD
ENDBRANCH  31  34
ENDBRANCH   6  31
TORSDOF 5
ENDMDL
MODEL 3
REMARK VINA RESULT:      -8.8      2.330      4.438
REMARK  5 active torsions:
REMARK  status: ('A' for Active; 'I' for Inactive)
REMARK    1  A    between atoms: S_3  and  O_4 
REMARK    2  A    between atoms: S_3  and  C_15 
REMARK    3  A    between atoms: N_9  and  C_30 
REMARK    4  A    between atoms: C_11  and  C_13 
REMARK    5  A    between atoms: C_18  and  C_25 
ROOT
HETATM    1  S   UNL     1     -35.552  -8.028 -20.044  1.00  0.00    -0.068 SA
HETATM    2  N   UNL     1     -36.998  -5.981 -19.744  1.00  0.00    -0.344 N 
HETATM    3  C   UNL     1     -36.853  -6.189 -21.094  1.00  0.00     0.053 A 
HETATM    4  C   UNL     1     -36.302  -6.914 -19.011  1.00  0.00     0.087 A 
HETATM    5  C   UNL     1     -36.079  -7.287 -21.448  1.00  0.00     0.057 A 
HETATM    6  C   UNL     1     -35.835  -7.650 -22.780  1.00  0.00     0.097 A 
HETATM    7  C   UNL     1     -36.414  -6.849 -23.799  1.00  0.00    -0.037 A 
HETATM    8  C   UNL     1     -37.430  -5.404 -22.104  1.00  0.00     0.031 A 
HETATM    9  C   UNL     1     -37.862  -4.911 -19.226  1.00  0.00     0.157 C 
HETATM   10  C   UNL     1     -37.206  -5.735 -23.445  1.00  0.00     0.011 A 
HETATM   11  C   UNL     1     -36.204  -7.160 -25.257  1.00  0.00     0.050 C 
ENDROOT
BRANCH   4  12
HETATM   12  C   UNL     1     -36.135  -6.998 -17.525  1.00  0.00    -0.001 A 
HETATM   13  C   UNL     1     -37.114  -6.533 -16.617  1.00  0.00     0.035 A 
HETATM   14  C   UNL     1     -36.866  -6.625 -15.251  1.00  0.00     0.034 A 
HETATM   15  S   UNL     1     -37.860  -6.160 -13.995  1.00  0.00    -0.069 SA
HETATM   16  C   UNL     1     -35.695  -7.146 -14.733  1.00  0.00     0.052 A 
HETATM   17  C   UNL     1     -36.752  -6.620 -12.792  1.00  0.00     0.087 A 
HETATM   18  N   UNL     1     -35.624  -7.168 -13.362  1.00  0.00    -0.344 N 
HETATM   19  C   UNL     1     -34.479  -7.772 -12.668  1.00  0.00     0.157 C 
HETATM   20  C   UNL     1     -34.705  -7.602 -15.614  1.00  0.00     0.032 A 
HETATM   21  C   UNL     1     -34.924  -7.515 -16.998  1.00  0.00     0.016 A 
BRANCH  17  22
HETATM   22  C   UNL     1     -37.040  -6.384 -11.341  1.00  0.00    -0.002 A 
HETATM   23  C   UNL     1     -37.042  -7.414 -10.383  1.00  0.00     0.016 A 
HETATM   24  C   UNL     1     -37.293  -7.144  -9.035  1.00  0.00     0.030 A 
HETATM   25  C   UNL     1     -37.544  -5.830  -8.585  1.00  0.00     0.029 A 
HETATM   26  C   UNL     1     -37.519  -4.798  -9.545  1.00  0.00     0.030 A 
HETATM   27  C   UNL     1     -37.264  -5.070 -10.892  1.00  0.00     0.016 A 
BRANCH  25  28
HETATM   28  N   UNL     1     -37.803  -5.551  -7.192  1.00  0.00    -0.390 N 
HETATM   29  C   UNL     1     -38.067  -6.636  -6.254  1.00  0.00     0.149 C 
HETATM   30  C   UNL     1     -37.807  -4.181  -6.697  1.00  0.00     0.149 C 
ENDBRANCH  25  28
ENDBRANCH  17  22
ENDBRANCH   4  12
BRANCH   6  31
HETATM   31  S   UNL     1     -34.814  -9.092 -23.167  1.00  0.00     0.131 S 
HETATM   32  O   UNL     1     -35.528 -10.089 -24.094  1.00  0.00    -0.598 OA
HETATM   33  O   UNL     1     -33.602  -8.707 -24.029  1.00  0.00    -0.598 OA
BRANCH  31  34
HETATM   34  O   UNL     1     -34.148 -10.050 -21.905  1.00  0.00    -0.292 OA
HETATM   35  H   UNL     1     -34.852 -10.083 -21.208  1.00  0.00     0.232 HD
ENDBRANCH  31  34
ENDBRANCH   6  31
TORSDOF 5
ENDMDL
MODEL 4
REMARK VINA RESULT:      -8.7      3.993     11.817
REMARK  5 active torsions:
REMARK  status: ('A' for Active; 'I' for Inactive)
REMARK    1  A    between atoms: S_3  and  O_4 
REMARK    2  A    between atoms: S_3  and  C_15 
REMARK    3  A    between atoms: N_9  and  C_30 
REMARK    4  A    between atoms: C_11  and  C_13 
REMARK    5  A    between atoms: C_18  and  C_25 
ROOT
HETATM    1  S   UNL     1     -35.482  -7.793 -11.197  1.00  0.00    -0.068 SA
HETATM    2  N   UNL     1     -36.988  -5.793 -11.526  1.00  0.00    -0.344 N 
HETATM    3  C   UNL     1     -36.936  -6.054 -10.178  1.00  0.00     0.053 A 
HETATM    4  C   UNL     1     -36.245  -6.701 -12.245  1.00  0.00     0.087 A 
HETATM    5  C   UNL     1     -36.143  -7.133  -9.810  1.00  0.00     0.057 A 
HETATM    6  C   UNL     1     -35.973  -7.533  -8.476  1.00  0.00     0.097 A 
HETATM    7  C   UNL     1     -36.647  -6.789  -7.473  1.00  0.00    -0.037 A 
HETATM    8  C   UNL     1     -37.595  -5.316  -9.183  1.00  0.00     0.031 A 
HETATM    9  C   UNL     1     -37.715  -4.629 -12.051  1.00  0.00     0.157 C 
HETATM   10  C   UNL     1     -37.450  -5.688  -7.842  1.00  0.00     0.011 A 
HETATM   11  C   UNL     1     -36.525  -7.146  -6.015  1.00  0.00     0.050 C 
ENDROOT
BRANCH   4  12
HETATM   12  C   UNL     1     -36.097  -6.818 -13.730  1.00  0.00    -0.001 A 
HETATM   13  C   UNL     1     -36.963  -6.167 -14.639  1.00  0.00     0.035 A 
HETATM   14  C   UNL     1     -36.771  -6.352 -16.005  1.00  0.00     0.034 A 
HETATM   15  S   UNL     1     -37.644  -5.690 -17.263  1.00  0.00    -0.069 SA
HETATM   16  C   UNL     1     -35.772  -7.156 -16.521  1.00  0.00     0.052 A 
HETATM   17  C   UNL     1     -36.730  -6.469 -18.463  1.00  0.00     0.087 A 
HETATM   18  N   UNL     1     -35.724  -7.217 -17.892  1.00  0.00    -0.344 N 
HETATM   19  C   UNL     1     -34.663  -7.960 -18.585  1.00  0.00     0.157 C 
HETATM   20  C   UNL     1     -34.909  -7.822 -15.639  1.00  0.00     0.032 A 
HETATM   21  C   UNL     1     -35.083  -7.659 -14.255  1.00  0.00     0.016 A 
BRANCH  17  22
HETATM   22  C   UNL     1     -37.076  -6.330 -19.914  1.00  0.00    -0.002 A 
HETATM   23  C   UNL     1     -37.486  -7.412 -20.712  1.00  0.00     0.016 A 
HETATM   24  C   UNL     1     -37.822  -7.232 -22.056  1.00  0.00     0.030 A 
HETATM   25  C   UNL     1     -37.772  -5.957 -22.659  1.00  0.00     0.029 A 
HETATM   26  C   UNL     1     -37.381  -4.869 -21.850  1.00  0.00     0.030 A 
HETATM   27  C   UNL     1     -37.049  -5.053 -20.505  1.00  0.00     0.016 A 
BRANCH  25  28
HETATM   28  N   UNL     1     -38.119  -5.770 -24.048  1.00  0.00    -0.390 N 
HETATM   29  C   UNL     1     -37.654  -4.597 -24.779  1.00  0.00     0.149 C 
HETATM   30  C   UNL     1     -38.943  -6.749 -24.746  1.00  0.00     0.149 C 
ENDBRANCH  25  28
ENDBRANCH  17  22
ENDBRANCH   4  12
BRANCH   6  31
HETATM   31  S   UNL     1     -34.926  -8.951  -8.069  1.00  0.00     0.131 S 
HETATM   32  O   UNL     1     -35.552 -10.288  -8.496  1.00  0.00    -0.598 OA
HETATM   33  O   UNL     1     -33.636  -8.952  -8.902  1.00  0.00    -0.598 OA
BRANCH  31  34
HETATM   34  O   UNL     1     -34.388  -9.201  -6.456  1.00  0.00    -0.292 OA
HETATM   35  H   UNL     1     -33.421  -8.982  -6.471  1.00  0.00     0.232 HD
ENDBRANCH  31  34
ENDBRANCH   6  31
TORSDOF 5
ENDMDL
MODEL 5
REMARK VINA RESULT:      -8.6      3.986     11.748
REMARK  5 active torsions:
REMARK  status: ('A' for Active; 'I' for Inactive)
REMARK    1  A    between atoms: S_3  and  O_4 
REMARK    2  A    between atoms: S_3  and  C_15 
REMARK    3  A    between atoms: N_9  and  C_30 
REMARK    4  A    between atoms: C_11  and  C_13 
REMARK    5  A    between atoms: C_18  and  C_25 
ROOT
HETATM    1  S   UNL     1     -35.529  -7.805 -11.052  1.00  0.00    -0.068 SA
HETATM    2  N   UNL     1     -37.002  -5.778 -11.354  1.00  0.00    -0.344 N 
HETATM    3  C   UNL     1     -36.944  -6.049 -10.008  1.00  0.00     0.053 A 
HETATM    4  C   UNL     1     -36.281  -6.692 -12.086  1.00  0.00     0.087 A 
HETATM    5  C   UNL     1     -36.167  -7.145  -9.655  1.00  0.00     0.057 A 
HETATM    6  C   UNL     1     -35.992  -7.558  -8.326  1.00  0.00     0.097 A 
HETATM    7  C   UNL     1     -36.644  -6.810  -7.311  1.00  0.00    -0.037 A 
HETATM    8  C   UNL     1     -37.581  -5.308  -9.002  1.00  0.00     0.031 A 
HETATM    9  C   UNL     1     -37.713  -4.597 -11.864  1.00  0.00     0.157 C 
HETATM   10  C   UNL     1     -37.432  -5.692  -7.665  1.00  0.00     0.011 A 
HETATM   11  C   UNL     1     -36.517  -7.180  -5.857  1.00  0.00     0.050 C 
ENDROOT
BRANCH   4  12
HETATM   12  C   UNL     1     -36.148  -6.801 -13.573  1.00  0.00    -0.001 A 
HETATM   13  C   UNL     1     -37.000  -6.115 -14.470  1.00  0.00     0.035 A 
HETATM   14  C   UNL     1     -36.823  -6.294 -15.839  1.00  0.00     0.034 A 
HETATM   15  S   UNL     1     -37.685  -5.594 -17.084  1.00  0.00    -0.069 SA
HETATM   16  C   UNL     1     -35.854  -7.124 -16.369  1.00  0.00     0.052 A 
HETATM   17  C   UNL     1     -36.804  -6.390 -18.298  1.00  0.00     0.087 A 
HETATM   18  N   UNL     1     -35.818  -7.174 -17.741  1.00  0.00    -0.344 N 
HETATM   19  C   UNL     1     -34.786  -7.944 -18.448  1.00  0.00     0.157 C 
HETATM   20  C   UNL     1     -35.006  -7.824 -15.500  1.00  0.00     0.032 A 
HETATM   21  C   UNL     1     -35.165  -7.668 -14.113  1.00  0.00     0.016 A 
BRANCH  17  22
HETATM   22  C   UNL     1     -37.156  -6.227 -19.745  1.00  0.00    -0.002 A 
HETATM   23  C   UNL     1     -37.055  -5.000 -20.425  1.00  0.00     0.016 A 
HETATM   24  C   UNL     1     -37.372  -4.898 -21.782  1.00  0.00     0.030 A 
HETATM   25  C   UNL     1     -37.794  -6.024 -22.521  1.00  0.00     0.029 A 
HETATM   26  C   UNL     1     -37.873  -7.257 -21.842  1.00  0.00     0.030 A 
HETATM   27  C   UNL     1     -37.552  -7.356 -20.486  1.00  0.00     0.016 A 
BRANCH  25  28
HETATM   28  N   UNL     1     -38.121  -5.919 -23.924  1.00  0.00    -0.390 N 
HETATM   29  C   UNL     1     -38.866  -6.978 -24.594  1.00  0.00     0.149 C 
HETATM   30  C   UNL     1     -37.713  -4.753 -24.697  1.00  0.00     0.149 C 
ENDBRANCH  25  28
ENDBRANCH  17  22
ENDBRANCH   4  12
BRANCH   6  31
HETATM   31  S   UNL     1     -34.967  -8.997  -7.939  1.00  0.00     0.131 S 
HETATM   32  O   UNL     1     -35.630 -10.321  -8.349  1.00  0.00    -0.598 OA
HETATM   33  O   UNL     1     -33.695  -9.027  -8.799  1.00  0.00    -0.598 OA
BRANCH  31  34
HETATM   34  O   UNL     1     -34.399  -9.255  -6.337  1.00  0.00    -0.292 OA
HETATM   35  H   UNL     1     -33.597  -9.829  -6.437  1.00  0.00     0.232 HD
ENDBRANCH  31  34
ENDBRANCH   6  31
TORSDOF 5
ENDMDL
MODEL 6
REMARK VINA RESULT:      -8.4      2.498      3.355
REMARK  5 active torsions:
REMARK  status: ('A' for Active; 'I' for Inactive)
REMARK    1  A    between atoms: S_3  and  O_4 
REMARK    2  A    between atoms: S_3  and  C_15 
REMARK    3  A    between atoms: N_9  and  C_30 
REMARK    4  A    between atoms: C_11  and  C_13 
REMARK    5  A    between atoms: C_18  and  C_25 
ROOT
HETATM    1  S   UNL     1     -37.194  -6.361 -17.383  1.00  0.00    -0.068 SA
HETATM    2  N   UNL     1     -35.579  -8.187 -16.730  1.00  0.00    -0.344 N 
HETATM    3  C   UNL     1     -35.475  -8.011 -18.089  1.00  0.00     0.053 A 
HETATM    4  C   UNL     1     -36.526  -7.354 -16.183  1.00  0.00     0.087 A 
HETATM    5  C   UNL     1     -36.301  -7.033 -18.627  1.00  0.00     0.057 A 
HETATM    6  C   UNL     1     -36.317  -6.718 -19.994  1.00  0.00     0.097 A 
HETATM    7  C   UNL     1     -35.444  -7.439 -20.848  1.00  0.00    -0.037 A 
HETATM    8  C   UNL     1     -34.608  -8.718 -18.935  1.00  0.00     0.031 A 
HETATM    9  C   UNL     1     -34.702  -9.124 -16.013  1.00  0.00     0.157 C 
HETATM   10  C   UNL     1     -34.599  -8.432 -20.305  1.00  0.00     0.011 A 
HETATM   11  C   UNL     1     -35.395  -7.172 -22.329  1.00  0.00     0.050 C 
ENDROOT
BRANCH   4  12
HETATM   12  C   UNL     1     -36.998  -7.281 -14.764  1.00  0.00    -0.001 A 
HETATM   13  C   UNL     1     -36.180  -6.820 -13.707  1.00  0.00     0.035 A 
HETATM   14  C   UNL     1     -36.690  -6.810 -12.413  1.00  0.00     0.034 A 
HETATM   15  S   UNL     1     -35.931  -6.307 -11.015  1.00  0.00    -0.069 SA
HETATM   16  C   UNL     1     -37.966  -7.243 -12.105  1.00  0.00     0.052 A 
HETATM   17  C   UNL     1     -37.260  -6.675 -10.022  1.00  0.00     0.087 A 
HETATM   18  N   UNL     1     -38.306  -7.155 -10.778  1.00  0.00    -0.344 N 
HETATM   19  C   UNL     1     -39.658  -7.496 -10.313  1.00  0.00     0.157 C 
HETATM   20  C   UNL     1     -38.792  -7.716 -13.134  1.00  0.00     0.032 A 
HETATM   21  C   UNL     1     -38.302  -7.744 -14.450  1.00  0.00     0.016 A 
BRANCH  17  22
HETATM   22  C   UNL     1     -37.188  -6.501  -8.536  1.00  0.00    -0.002 A 
HETATM   23  C   UNL     1     -37.596  -5.325  -7.881  1.00  0.00     0.016 A 
HETATM   24  C   UNL     1     -37.534  -5.215  -6.489  1.00  0.00     0.030 A 
HETATM   25  C   UNL     1     -37.069  -6.282  -5.690  1.00  0.00     0.029 A 
HETATM   26  C   UNL     1     -36.682  -7.467  -6.349  1.00  0.00     0.030 A 
HETATM   27  C   UNL     1     -36.749  -7.575  -7.741  1.00  0.00     0.016 A 
BRANCH  25  28
HETATM   28  N   UNL     1     -37.005  -6.169  -4.252  1.00  0.00    -0.390 N 
HETATM   29  C   UNL     1     -37.638  -5.049  -3.566  1.00  0.00     0.149 C 
HETATM   30  C   UNL     1     -36.306  -7.171  -3.459  1.00  0.00     0.149 C 
ENDBRANCH  25  28
ENDBRANCH  17  22
ENDBRANCH   4  12
BRANCH   6  31
HETATM   31  S   UNL     1     -37.422  -5.433 -20.626  1.00  0.00     0.131 S 
HETATM   32  O   UNL     1     -37.617  -5.518 -22.149  1.00  0.00    -0.598 OA
HETATM   33  O   UNL     1     -38.862  -5.639 -20.134  1.00  0.00    -0.598 OA
BRANCH  31  34
HETATM   34  O   UNL     1     -37.100  -3.775 -20.306  1.00  0.00    -0.292 OA
HETATM   35  H   UNL     1     -36.491  -3.486 -21.033  1.00  0.00     0.232 HD
ENDBRANCH  31  34
ENDBRANCH   6  31
TORSDOF 5
ENDMDL
MODEL 7
REMARK VINA RESULT:      -8.4      4.822     11.943
REMARK  5 active torsions:
REMARK  status: ('A' for Active; 'I' for Inactive)
REMARK    1  A    between atoms: S_3  and  O_4 
REMARK    2  A    between atoms: S_3  and  C_15 
REMARK    3  A    between atoms: N_9  and  C_30 
REMARK    4  A    between atoms: C_11  and  C_13 
REMARK    5  A    between atoms: C_18  and  C_25 
ROOT
HETATM    1  S   UNL     1     -37.320  -6.154  -8.336  1.00  0.00    -0.068 SA
HETATM    2  N   UNL     1     -35.296  -7.505  -9.008  1.00  0.00    -0.344 N 
HETATM    3  C   UNL     1     -35.339  -7.481  -7.634  1.00  0.00     0.053 A 
HETATM    4  C   UNL     1     -36.327  -6.779  -9.558  1.00  0.00     0.087 A 
HETATM    5  C   UNL     1     -36.400  -6.774  -7.084  1.00  0.00     0.057 A 
HETATM    6  C   UNL     1     -36.600  -6.654  -5.701  1.00  0.00     0.097 A 
HETATM    7  C   UNL     1     -35.668  -7.291  -4.842  1.00  0.00    -0.037 A 
HETATM    8  C   UNL     1     -34.423  -8.115  -6.782  1.00  0.00     0.031 A 
HETATM    9  C   UNL     1     -34.281  -8.289  -9.725  1.00  0.00     0.157 C 
HETATM   10  C   UNL     1     -34.589  -8.015  -5.396  1.00  0.00     0.011 A 
HETATM   11  C   UNL     1     -35.799  -7.214  -3.344  1.00  0.00     0.050 C 
ENDROOT
BRANCH   4  12
HETATM   12  C   UNL     1     -36.598  -6.491 -11.002  1.00  0.00    -0.001 A 
HETATM   13  C   UNL     1     -36.112  -7.307 -12.050  1.00  0.00     0.035 A 
HETATM   14  C   UNL     1     -36.389  -6.951 -13.367  1.00  0.00     0.034 A 
HETATM   15  S   UNL     1     -35.941  -7.750 -14.761  1.00  0.00    -0.069 SA
HETATM   16  C   UNL     1     -37.113  -5.824 -13.704  1.00  0.00     0.052 A 
HETATM   17  C   UNL     1     -36.674  -6.613 -15.788  1.00  0.00     0.087 A 
HETATM   18  N   UNL     1     -37.297  -5.632 -15.051  1.00  0.00    -0.344 N 
HETATM   19  C   UNL     1     -38.121  -4.525 -15.557  1.00  0.00     0.157 C 
HETATM   20  C   UNL     1     -37.595  -4.992 -12.683  1.00  0.00     0.032 A 
HETATM   21  C   UNL     1     -37.325  -5.323 -11.345  1.00  0.00     0.016 A 
BRANCH  17  22
HETATM   22  C   UNL     1     -36.566  -6.732 -17.277  1.00  0.00    -0.002 A 
HETATM   23  C   UNL     1     -37.491  -6.149 -18.162  1.00  0.00     0.016 A 
HETATM   24  C   UNL     1     -37.339  -6.264 -19.546  1.00  0.00     0.030 A 
HETATM   25  C   UNL     1     -36.246  -6.961 -20.107  1.00  0.00     0.029 A 
HETATM   26  C   UNL     1     -35.309  -7.525 -19.217  1.00  0.00     0.030 A 
HETATM   27  C   UNL     1     -35.463  -7.404 -17.834  1.00  0.00     0.016 A 
BRANCH  25  28
HETATM   28  N   UNL     1     -36.088  -7.080 -21.537  1.00  0.00    -0.390 N 
HETATM   29  C   UNL     1     -34.820  -7.514 -22.110  1.00  0.00     0.149 C 
HETATM   30  C   UNL     1     -37.192  -6.767 -22.435  1.00  0.00     0.149 C 
ENDBRANCH  25  28
ENDBRANCH  17  22
ENDBRANCH   4  12
BRANCH   6  31
HETATM   31  S   UNL     1     -38.004  -5.715  -5.054  1.00  0.00     0.131 S 
HETATM   32  O   UNL     1     -39.308  -6.529  -5.050  1.00  0.00    -0.598 OA
HETATM   33  O   UNL     1     -37.838  -5.419  -3.556  1.00  0.00    -0.598 OA
BRANCH  31  34
HETATM   34  O   UNL     1     -38.425  -4.196  -5.740  1.00  0.00    -0.292 OA
HETATM   35  H   UNL     1     -39.398  -4.254  -5.917  1.00  0.00     0.232 HD
ENDBRANCH  31  34
ENDBRANCH   6  31
TORSDOF 5
ENDMDL
MODEL 8
REMARK VINA RESULT:      -8.4      2.179      2.642
REMARK  5 active torsions:
REMARK  status: ('A' for Active; 'I' for Inactive)
REMARK    1  A    between atoms: S_3  and  O_4 
REMARK    2  A    between atoms: S_3  and  C_15 
REMARK    3  A    between atoms: N_9  and  C_30 
REMARK    4  A    between atoms: C_11  and  C_13 
REMARK    5  A    between atoms: C_18  and  C_25 
ROOT
HETATM    1  S   UNL     1     -35.679  -7.713 -15.838  1.00  0.00    -0.068 SA
HETATM    2  N   UNL     1     -37.358  -5.832 -15.711  1.00  0.00    -0.344 N 
HETATM    3  C   UNL     1     -37.056  -6.027 -17.038  1.00  0.00     0.053 A 
HETATM    4  C   UNL     1     -36.645  -6.683 -14.900  1.00  0.00     0.087 A 
HETATM    5  C   UNL     1     -36.137  -7.036 -17.297  1.00  0.00     0.057 A 
HETATM    6  C   UNL     1     -35.723  -7.374 -18.594  1.00  0.00     0.097 A 
HETATM    7  C   UNL     1     -36.277  -6.642 -19.675  1.00  0.00    -0.037 A 
HETATM    8  C   UNL     1     -37.608  -5.310 -18.110  1.00  0.00     0.031 A 
HETATM    9  C   UNL     1     -38.379  -4.860 -15.297  1.00  0.00     0.157 C 
HETATM   10  C   UNL     1     -37.215  -5.618 -19.417  1.00  0.00     0.011 A 
HETATM   11  C   UNL     1     -35.889  -6.931 -21.101  1.00  0.00     0.050 C 
ENDROOT
BRANCH   4  12
HETATM   12  C   UNL     1     -36.621  -6.746 -13.404  1.00  0.00    -0.001 A 
HETATM   13  C   UNL     1     -35.567  -7.349 -12.680  1.00  0.00     0.035 A 
HETATM   14  C   UNL     1     -35.637  -7.387 -11.290  1.00  0.00     0.034 A 
HETATM   15  S   UNL     1     -34.526  -8.027 -10.224  1.00  0.00    -0.069 SA
HETATM   16  C   UNL     1     -36.701  -6.868 -10.578  1.00  0.00     0.052 A 
HETATM   17  C   UNL     1     -35.446  -7.641  -8.850  1.00  0.00     0.087 A 
HETATM   18  N   UNL     1     -36.601  -6.985  -9.214  1.00  0.00    -0.344 N 
HETATM   19  C   UNL     1     -37.612  -6.402  -8.322  1.00  0.00     0.157 C 
HETATM   20  C   UNL     1     -37.764  -6.275 -11.274  1.00  0.00     0.032 A 
HETATM   21  C   UNL     1     -37.724  -6.229 -12.677  1.00  0.00     0.016 A 
BRANCH  17  22
HETATM   22  C   UNL     1     -34.995  -8.040  -7.478  1.00  0.00    -0.002 A 
HETATM   23  C   UNL     1     -34.564  -7.113  -6.513  1.00  0.00     0.016 A 
HETATM   24  C   UNL     1     -34.175  -7.527  -5.237  1.00  0.00     0.030 A 
HETATM   25  C   UNL     1     -34.209  -8.889  -4.867  1.00  0.00     0.029 A 
HETATM   26  C   UNL     1     -34.663  -9.814  -5.830  1.00  0.00     0.030 A 
HETATM   27  C   UNL     1     -35.055  -9.395  -7.104  1.00  0.00     0.016 A 
BRANCH  25  28
HETATM   28  N   UNL     1     -33.806  -9.318  -3.548  1.00  0.00    -0.390 N 
HETATM   29  C   UNL     1     -33.920 -10.717  -3.155  1.00  0.00     0.149 C 
HETATM   30  C   UNL     1     -33.280  -8.360  -2.584  1.00  0.00     0.149 C 
ENDBRANCH  25  28
ENDBRANCH  17  22
ENDBRANCH   4  12
BRANCH   6  31
HETATM   31  S   UNL     1     -34.520  -8.699 -18.857  1.00  0.00     0.131 S 
HETATM   32  O   UNL     1     -34.905  -9.622 -20.024  1.00  0.00    -0.598 OA
HETATM   33  O   UNL     1     -33.175  -8.145 -19.352  1.00  0.00    -0.598 OA
BRANCH  31  34
HETATM   34  O   UNL     1     -34.094  -9.755 -17.570  1.00  0.00    -0.292 OA
HETATM   35  H   UNL     1     -34.893  -9.781 -16.983  1.00  0.00     0.232 HD
ENDBRANCH  31  34
ENDBRANCH   6  31
TORSDOF 5
ENDMDL
MODEL 9
REMARK VINA RESULT:      -8.2      3.833     11.814
REMARK  5 active torsions:
REMARK  status: ('A' for Active; 'I' for Inactive)
REMARK    1  A    between atoms: S_3  and  O_4 
REMARK    2  A    between atoms: S_3  and  C_15 
REMARK    3  A    between atoms: N_9  and  C_30 
REMARK    4  A    between atoms: C_11  and  C_13 
REMARK    5  A    between atoms: C_18  and  C_25 
ROOT
HETATM    1  S   UNL     1     -35.860  -7.597 -11.108  1.00  0.00    -0.068 SA
HETATM    2  N   UNL     1     -37.254  -5.493 -11.146  1.00  0.00    -0.344 N 
HETATM    3  C   UNL     1     -37.032  -5.817  -9.830  1.00  0.00     0.053 A 
HETATM    4  C   UNL     1     -36.684  -6.412 -11.996  1.00  0.00     0.087 A 
HETATM    5  C   UNL     1     -36.272  -6.960  -9.618  1.00  0.00     0.057 A 
HETATM    6  C   UNL     1     -35.944  -7.430  -8.338  1.00  0.00     0.097 A 
HETATM    7  C   UNL     1     -36.417  -6.692  -7.222  1.00  0.00    -0.037 A 
HETATM    8  C   UNL     1     -37.492  -5.085  -8.725  1.00  0.00     0.031 A 
HETATM    9  C   UNL     1     -37.964  -4.262 -11.519  1.00  0.00     0.157 C 
HETATM   10  C   UNL     1     -37.186  -5.526  -7.432  1.00  0.00     0.011 A 
HETATM   11  C   UNL     1     -36.117  -7.122  -5.810  1.00  0.00     0.050 C 
ENDROOT
BRANCH   4  12
HETATM   12  C   UNL     1     -36.755  -6.471 -13.491  1.00  0.00    -0.001 A 
HETATM   13  C   UNL     1     -35.937  -7.327 -14.263  1.00  0.00     0.035 A 
HETATM   14  C   UNL     1     -36.049  -7.300 -15.650  1.00  0.00     0.034 A 
HETATM   15  S   UNL     1     -35.210  -8.213 -16.765  1.00  0.00    -0.069 SA
HETATM   16  C   UNL     1     -36.923  -6.462 -16.316  1.00  0.00     0.052 A 
HETATM   17  C   UNL     1     -35.975  -7.497 -18.102  1.00  0.00     0.087 A 
HETATM   18  N   UNL     1     -36.908  -6.574 -17.684  1.00  0.00    -0.344 N 
HETATM   19  C   UNL     1     -37.844  -5.812 -18.522  1.00  0.00     0.157 C 
HETATM   20  C   UNL     1     -37.737  -5.596 -15.572  1.00  0.00     0.032 A 
HETATM   21  C   UNL     1     -37.640  -5.596 -14.171  1.00  0.00     0.016 A 
BRANCH  17  22
HETATM   22  C   UNL     1     -35.589  -7.861 -19.502  1.00  0.00    -0.002 A 
HETATM   23  C   UNL     1     -35.229  -6.907 -20.471  1.00  0.00     0.016 A 
HETATM   24  C   UNL     1     -34.852  -7.293 -21.760  1.00  0.00     0.030 A 
HETATM   25  C   UNL     1     -34.810  -8.654 -22.134  1.00  0.00     0.029 A 
HETATM   26  C   UNL     1     -35.151  -9.609 -21.153  1.00  0.00     0.030 A 
HETATM   27  C   UNL     1     -35.523  -9.219 -19.865  1.00  0.00     0.016 A 
BRANCH  25  28
HETATM   28  N   UNL     1     -34.421  -9.053 -23.466  1.00  0.00    -0.390 N 
HETATM   29  C   UNL     1     -34.134 -10.450 -23.768  1.00  0.00     0.149 C 
HETATM   30  C   UNL     1     -34.306  -8.068 -24.533  1.00  0.00     0.149 C 
ENDBRANCH  25  28
ENDBRANCH  17  22
ENDBRANCH   4  12
BRANCH   6  31
HETATM   31  S   UNL     1     -34.952  -8.929  -8.136  1.00  0.00     0.131 S 
HETATM   32  O   UNL     1     -35.645 -10.177  -8.709  1.00  0.00    -0.598 OA
HETATM   33  O   UNL     1     -33.680  -8.879  -8.996  1.00  0.00    -0.598 OA
BRANCH  31  34
HETATM   34  O   UNL     1     -34.392  -9.399  -6.581  1.00  0.00    -0.292 OA
HETATM   35  H   UNL     1     -35.008  -8.959  -5.942  1.00  0.00     0.232 HD
ENDBRANCH  31  34
ENDBRANCH   6  31
TORSDOF 5
ENDMDL
MODEL 10
REMARK VINA RESULT:      -8.2      3.968     11.679
REMARK  5 active torsions:
REMARK  status: ('A' for Active; 'I' for Inactive)
REMARK    1  A    between atoms: S_3  and  O_4 
REMARK    2  A    between atoms: S_3  and  C_15 
REMARK    3  A    between atoms: N_9  and  C_30 
REMARK    4  A    between atoms: C_11  and  C_13 
REMARK    5  A    between atoms: C_18  and  C_25 
ROOT
HETATM    1  S   UNL     1     -36.366  -8.035  -9.909  1.00  0.00    -0.068 SA
HETATM    2  N   UNL     1     -37.590  -5.830 -10.002  1.00  0.00    -0.344 N 
HETATM    3  C   UNL     1     -37.221  -6.042  -8.696  1.00  0.00     0.053 A 
HETATM    4  C   UNL     1     -37.210  -6.875 -10.811  1.00  0.00     0.087 A 
HETATM    5  C   UNL     1     -36.528  -7.222  -8.457  1.00  0.00     0.057 A 
HETATM    6  C   UNL     1     -36.069  -7.591  -7.184  1.00  0.00     0.097 A 
HETATM    7  C   UNL     1     -36.332  -6.708  -6.106  1.00  0.00    -0.037 A 
HETATM    8  C   UNL     1     -37.473  -5.167  -7.628  1.00  0.00     0.031 A 
HETATM    9  C   UNL     1     -38.250  -4.583 -10.416  1.00  0.00     0.157 C 
HETATM   10  C   UNL     1     -37.032  -5.505  -6.344  1.00  0.00     0.011 A 
HETATM   11  C   UNL     1     -35.881  -7.023  -4.704  1.00  0.00     0.050 C 
ENDROOT
BRANCH   4  12
HETATM   12  C   UNL     1     -37.483  -7.073 -12.270  1.00  0.00    -0.001 A 
HETATM   13  C   UNL     1     -36.630  -6.579 -13.283  1.00  0.00     0.035 A 
HETATM   14  C   UNL     1     -36.973  -6.786 -14.616  1.00  0.00     0.034 A 
HETATM   15  S   UNL     1     -36.133  -6.313 -15.977  1.00  0.00    -0.069 SA
HETATM   16  C   UNL     1     -38.123  -7.449 -15.001  1.00  0.00     0.052 A 
HETATM   17  C   UNL     1     -37.280  -6.956 -17.052  1.00  0.00     0.087 A 
HETATM   18  N   UNL     1     -38.298  -7.569 -16.358  1.00  0.00    -0.344 N 
HETATM   19  C   UNL     1     -39.428  -8.324 -16.916  1.00  0.00     0.157 C 
HETATM   20  C   UNL     1     -38.991  -7.938 -14.015  1.00  0.00     0.032 A 
HETATM   21  C   UNL     1     -38.674  -7.738 -12.661  1.00  0.00     0.016 A 
BRANCH  17  22
HETATM   22  C   UNL     1     -37.131  -6.791 -18.533  1.00  0.00    -0.002 A 
HETATM   23  C   UNL     1     -36.147  -7.458 -19.284  1.00  0.00     0.016 A 
HETATM   24  C   UNL     1     -36.059  -7.293 -20.669  1.00  0.00     0.030 A 
HETATM   25  C   UNL     1     -36.961  -6.460 -21.365  1.00  0.00     0.029 A 
HETATM   26  C   UNL     1     -37.960  -5.810 -20.612  1.00  0.00     0.030 A 
HETATM   27  C   UNL     1     -38.047  -5.980 -19.228  1.00  0.00     0.016 A 
BRANCH  25  28
HETATM   28  N   UNL     1     -36.871  -6.289 -22.797  1.00  0.00    -0.390 N 
HETATM   29  C   UNL     1     -37.602  -5.219 -23.465  1.00  0.00     0.149 C 
HETATM   30  C   UNL     1     -36.049  -7.183 -23.601  1.00  0.00     0.149 C 
ENDBRANCH  25  28
ENDBRANCH  17  22
ENDBRANCH   4  12
BRANCH   6  31
HETATM   31  S   UNL     1     -35.175  -9.146  -6.946  1.00  0.00     0.131 S 
HETATM   32  O   UNL     1     -36.031 -10.377  -7.284  1.00  0.00    -0.598 OA
HETATM   33  O   UNL     1     -34.032  -9.296  -7.962  1.00  0.00    -0.598 OA
BRANCH  31  34
HETATM   34  O   UNL     1     -34.445  -9.506  -5.433  1.00  0.00    -0.292 OA
HETATM   35  H   UNL     1     -33.863  -8.728  -5.236  1.00  0.00     0.232 HD
ENDBRANCH  31  34
ENDBRANCH   6  31
TORSDOF 5
ENDMDL
MODEL 11
REMARK VINA RESULT:      -8.1      2.666      3.320
REMARK  5 active torsions:
REMARK  status: ('A' for Active; 'I' for Inactive)
REMARK    1  A    between atoms: S_3  and  O_4 
REMARK    2  A    between atoms: S_3  and  C_15 
REMARK    3  A    between atoms: N_9  and  C_30 
REMARK    4  A    between atoms: C_11  and  C_13 
REMARK    5  A    between atoms: C_18  and  C_25 
ROOT
HETATM    1  S   UNL     1     -36.748  -5.982 -16.213  1.00  0.00    -0.068 SA
HETATM    2  N   UNL     1     -35.298  -7.993 -15.738  1.00  0.00    -0.344 N 
HETATM    3  C   UNL     1     -35.408  -7.877 -17.103  1.00  0.00     0.053 A 
HETATM    4  C   UNL     1     -36.018  -7.018 -15.088  1.00  0.00     0.087 A 
HETATM    5  C   UNL     1     -36.180  -6.811 -17.549  1.00  0.00     0.057 A 
HETATM    6  C   UNL     1     -36.391  -6.541 -18.909  1.00  0.00     0.097 A 
HETATM    7  C   UNL     1     -35.781  -7.404 -19.856  1.00  0.00    -0.037 A 
HETATM    8  C   UNL     1     -34.801  -8.724 -18.042  1.00  0.00     0.031 A 
HETATM    9  C   UNL     1     -34.441  -9.019 -15.127  1.00  0.00     0.157 C 
HETATM   10  C   UNL     1     -34.992  -8.486 -19.408  1.00  0.00     0.011 A 
HETATM   11  C   UNL     1     -35.954  -7.194 -21.337  1.00  0.00     0.050 C 
ENDROOT
BRANCH   4  12
HETATM   12  C   UNL     1     -36.224  -6.836 -13.616  1.00  0.00    -0.001 A 
HETATM   13  C   UNL     1     -35.450  -7.511 -12.645  1.00  0.00     0.035 A 
HETATM   14  C   UNL     1     -35.726  -7.303 -11.297  1.00  0.00     0.034 A 
HETATM   15  S   UNL     1     -34.953  -7.969  -9.977  1.00  0.00    -0.069 SA
HETATM   16  C   UNL     1     -36.736  -6.469 -10.857  1.00  0.00     0.052 A 
HETATM   17  C   UNL     1     -35.950  -7.183  -8.849  1.00  0.00     0.087 A 
HETATM   18  N   UNL     1     -36.861  -6.376  -9.493  1.00  0.00    -0.344 N 
HETATM   19  C   UNL     1     -37.832  -5.461  -8.877  1.00  0.00     0.157 C 
HETATM   20  C   UNL     1     -37.525  -5.797 -11.801  1.00  0.00     0.032 A 
HETATM   21  C   UNL     1     -37.274  -5.993 -13.169  1.00  0.00     0.016 A 
BRANCH  17  22
HETATM   22  C   UNL     1     -35.803  -7.432  -7.379  1.00  0.00    -0.002 A 
HETATM   23  C   UNL     1     -36.867  -7.858  -6.563  1.00  0.00     0.016 A 
HETATM   24  C   UNL     1     -36.679  -8.101  -5.200  1.00  0.00     0.030 A 
HETATM   25  C   UNL     1     -35.414  -7.937  -4.595  1.00  0.00     0.029 A 
HETATM   26  C   UNL     1     -34.345  -7.531  -5.420  1.00  0.00     0.030 A 
HETATM   27  C   UNL     1     -34.536  -7.292  -6.783  1.00  0.00     0.016 A 
BRANCH  25  28
HETATM   28  N   UNL     1     -35.220  -8.188  -3.186  1.00  0.00    -0.390 N 
HETATM   29  C   UNL     1     -36.309  -8.705  -2.366  1.00  0.00     0.149 C 
HETATM   30  C   UNL     1     -33.932  -7.928  -2.556  1.00  0.00     0.149 C 
ENDBRANCH  25  28
ENDBRANCH  17  22
ENDBRANCH   4  12
BRANCH   6  31
HETATM   31  S   UNL     1     -37.409  -5.136 -19.419  1.00  0.00     0.131 S 
HETATM   32  O   UNL     1     -38.780  -5.567 -19.964  1.00  0.00    -0.598 OA
HETATM   33  O   UNL     1     -37.829  -4.281 -18.213  1.00  0.00    -0.598 OA
BRANCH  31  34
HETATM   34  O   UNL     1     -36.811  -3.995 -20.557  1.00  0.00    -0.292 OA
HETATM   35  H   UNL     1     -36.202  -4.512 -21.144  1.00  0.00     0.232 HD
ENDBRANCH  31  34
ENDBRANCH   6  31
TORSDOF 5
ENDMDL
MODEL 12
REMARK VINA RESULT:      -8.1      4.315     11.540
REMARK  5 active torsions:
REMARK  status: ('A' for Active; 'I' for Inactive)
REMARK    1  A    between atoms: S_3  and  O_4 
REMARK    2  A    between atoms: S_3  and  C_15 
REMARK    3  A    between atoms: N_9  and  C_30 
REMARK    4  A    between atoms: C_11  and  C_13 
REMARK    5  A    between atoms: C_18  and  C_25 
ROOT
HETATM    1  S   UNL     1     -35.635  -7.655  -8.531  1.00  0.00    -0.068 SA
HETATM    2  N   UNL     1     -37.157  -5.682  -8.937  1.00  0.00    -0.344 N 
HETATM    3  C   UNL     1     -37.116  -5.900  -7.581  1.00  0.00     0.053 A 
HETATM    4  C   UNL     1     -36.398  -6.604  -9.620  1.00  0.00     0.087 A 
HETATM    5  C   UNL     1     -36.317  -6.959  -7.171  1.00  0.00     0.057 A 
HETATM    6  C   UNL     1     -36.156  -7.315  -5.824  1.00  0.00     0.097 A 
HETATM    7  C   UNL     1     -36.847  -6.548  -4.851  1.00  0.00    -0.037 A 
HETATM    8  C   UNL     1     -37.792  -5.138  -6.616  1.00  0.00     0.031 A 
HETATM    9  C   UNL     1     -37.890  -4.542  -9.505  1.00  0.00     0.157 C 
HETATM   10  C   UNL     1     -37.657  -5.466  -5.262  1.00  0.00     0.011 A 
HETATM   11  C   UNL     1     -36.737  -6.858  -3.382  1.00  0.00     0.050 C 
ENDROOT
BRANCH   4  12
HETATM   12  C   UNL     1     -36.235  -6.767 -11.099  1.00  0.00    -0.001 A 
HETATM   13  C   UNL     1     -37.244  -6.414 -12.024  1.00  0.00     0.035 A 
HETATM   14  C   UNL     1     -37.020  -6.623 -13.382  1.00  0.00     0.034 A 
HETATM   15  S   UNL     1     -38.042  -6.283 -14.655  1.00  0.00    -0.069 SA
HETATM   16  C   UNL     1     -35.851  -7.172 -13.874  1.00  0.00     0.052 A 
HETATM   17  C   UNL     1     -36.965  -6.870 -15.830  1.00  0.00     0.087 A 
HETATM   18  N   UNL     1     -35.797  -7.299 -15.240  1.00  0.00    -0.344 N 
HETATM   19  C   UNL     1     -34.585  -7.784 -15.913  1.00  0.00     0.157 C 
HETATM   20  C   UNL     1     -34.840  -7.541 -12.975  1.00  0.00     0.032 A 
HETATM   21  C   UNL     1     -35.041  -7.348 -11.599  1.00  0.00     0.016 A 
BRANCH  17  22
HETATM   22  C   UNL     1     -37.345  -6.909 -17.278  1.00  0.00    -0.002 A 
HETATM   23  C   UNL     1     -37.382  -5.763 -18.093  1.00  0.00     0.016 A 
HETATM   24  C   UNL     1     -37.719  -5.849 -19.446  1.00  0.00     0.030 A 
HETATM   25  C   UNL     1     -38.024  -7.089 -20.047  1.00  0.00     0.029 A 
HETATM   26  C   UNL     1     -37.964  -8.239 -19.233  1.00  0.00     0.030 A 
HETATM   27  C   UNL     1     -37.623  -8.150 -17.881  1.00  0.00     0.016 A 
BRANCH  25  28
HETATM   28  N   UNL     1     -38.372  -7.178 -21.446  1.00  0.00    -0.390 N 
HETATM   29  C   UNL     1     -39.292  -8.206 -21.918  1.00  0.00     0.149 C 
HETATM   30  C   UNL     1     -37.810  -6.244 -22.412  1.00  0.00     0.149 C 
ENDBRANCH  25  28
ENDBRANCH  17  22
ENDBRANCH   4  12
BRANCH   6  31
HETATM   31  S   UNL     1     -35.100  -8.709  -5.363  1.00  0.00     0.131 S 
HETATM   32  O   UNL     1     -33.984  -8.307  -4.385  1.00  0.00    -0.598 OA
HETATM   33  O   UNL     1     -35.868  -9.741  -4.523  1.00  0.00    -0.598 OA
BRANCH  31  34
HETATM   34  O   UNL     1     -34.320  -9.647  -6.574  1.00  0.00    -0.292 OA
HETATM   35  H   UNL     1     -34.159 -10.530  -6.152  1.00  0.00     0.232 HD
ENDBRANCH  31  34
ENDBRANCH   6  31
TORSDOF 5
ENDMDL
MODEL 13
REMARK VINA RESULT:      -8.0      5.078     11.732
REMARK  5 active torsions:
REMARK  status: ('A' for Active; 'I' for Inactive)
REMARK    1  A    between atoms: S_3  and  O_4 
REMARK    2  A    between atoms: S_3  and  C_15 
REMARK    3  A    between atoms: N_9  and  C_30 
REMARK    4  A    between atoms: C_11  and  C_13 
REMARK    5  A    between atoms: C_18  and  C_25 
ROOT
HETATM    1  S   UNL     1     -35.646  -7.902  -6.223  1.00  0.00    -0.068 SA
HETATM    2  N   UNL     1     -37.024  -5.804  -6.495  1.00  0.00    -0.344 N 
HETATM    3  C   UNL     1     -36.997  -6.109  -5.155  1.00  0.00     0.053 A 
HETATM    4  C   UNL     1     -36.334  -6.733  -7.239  1.00  0.00     0.087 A 
HETATM    5  C   UNL     1     -36.274  -7.247  -4.818  1.00  0.00     0.057 A 
HETATM    6  C   UNL     1     -36.136  -7.697  -3.497  1.00  0.00     0.097 A 
HETATM    7  C   UNL     1     -36.768  -6.946  -2.474  1.00  0.00    -0.037 A 
HETATM    8  C   UNL     1     -37.615  -5.364  -4.140  1.00  0.00     0.031 A 
HETATM    9  C   UNL     1     -37.675  -4.581  -6.985  1.00  0.00     0.157 C 
HETATM   10  C   UNL     1     -37.501  -5.786  -2.811  1.00  0.00     0.011 A 
HETATM   11  C   UNL     1     -36.678  -7.355  -1.027  1.00  0.00     0.050 C 
ENDROOT
BRANCH   4  12
HETATM   12  C   UNL     1     -36.186  -6.813  -8.727  1.00  0.00    -0.001 A 
HETATM   13  C   UNL     1     -37.049  -6.137  -9.620  1.00  0.00     0.035 A 
HETATM   14  C   UNL     1     -36.856  -6.287 -10.990  1.00  0.00     0.034 A 
HETATM   15  S   UNL     1     -37.727  -5.591 -12.230  1.00  0.00    -0.069 SA
HETATM   16  C   UNL     1     -35.859  -7.080 -11.525  1.00  0.00     0.052 A 
HETATM   17  C   UNL     1     -36.813  -6.342 -13.450  1.00  0.00     0.087 A 
HETATM   18  N   UNL     1     -35.810  -7.106 -12.897  1.00  0.00    -0.344 N 
HETATM   19  C   UNL     1     -34.750  -7.834 -13.608  1.00  0.00     0.157 C 
HETATM   20  C   UNL     1     -34.998  -7.770 -10.660  1.00  0.00     0.032 A 
HETATM   21  C   UNL     1     -35.173  -7.642  -9.272  1.00  0.00     0.016 A 
BRANCH  17  22
HETATM   22  C   UNL     1     -37.157  -6.165 -14.897  1.00  0.00    -0.002 A 
HETATM   23  C   UNL     1     -37.139  -4.915 -15.542  1.00  0.00     0.016 A 
HETATM   24  C   UNL     1     -37.444  -4.799 -16.900  1.00  0.00     0.030 A 
HETATM   25  C   UNL     1     -37.773  -5.931 -17.676  1.00  0.00     0.029 A 
HETATM   26  C   UNL     1     -37.769  -7.185 -17.031  1.00  0.00     0.030 A 
HETATM   27  C   UNL     1     -37.460  -7.298 -15.673  1.00  0.00     0.016 A 
BRANCH  25  28
HETATM   28  N   UNL     1     -38.089  -5.812 -19.080  1.00  0.00    -0.390 N 
HETATM   29  C   UNL     1     -37.550  -4.713 -19.872  1.00  0.00     0.149 C 
HETATM   30  C   UNL     1     -38.954  -6.786 -19.733  1.00  0.00     0.149 C 
ENDBRANCH  25  28
ENDBRANCH  17  22
ENDBRANCH   4  12
BRANCH   6  31
HETATM   31  S   UNL     1     -35.181  -9.189  -3.131  1.00  0.00     0.131 S 
HETATM   32  O   UNL     1     -35.678 -10.415  -3.914  1.00  0.00    -0.598 OA
HETATM   33  O   UNL     1     -33.740  -9.074  -3.651  1.00  0.00    -0.598 OA
BRANCH  31  34
HETATM   34  O   UNL     1     -35.003  -9.732  -1.510  1.00  0.00    -0.292 OA
HETATM   35  H   UNL     1     -35.539 -10.564  -1.457  1.00  0.00     0.232 HD
ENDBRANCH  31  34
ENDBRANCH   6  31
TORSDOF 5
ENDMDL
MODEL 14
REMARK VINA RESULT:      -8.0      2.757      3.674
REMARK  5 active torsions:
REMARK  status: ('A' for Active; 'I' for Inactive)
REMARK    1  A    between atoms: S_3  and  O_4 
REMARK    2  A    between atoms: S_3  and  C_15 
REMARK    3  A    between atoms: N_9  and  C_30 
REMARK    4  A    between atoms: C_11  and  C_13 
REMARK    5  A    between atoms: C_18  and  C_25 
ROOT
HETATM    1  S   UNL     1     -37.420  -6.080 -17.794  1.00  0.00    -0.068 SA
HETATM    2  N   UNL     1     -39.000  -7.881 -16.999  1.00  0.00    -0.344 N 
HETATM    3  C   UNL     1     -39.051  -7.865 -18.372  1.00  0.00     0.053 A 
HETATM    4  C   UNL     1     -38.149  -6.916 -16.513  1.00  0.00     0.087 A 
HETATM    5  C   UNL     1     -38.234  -6.924 -18.987  1.00  0.00     0.057 A 
HETATM    6  C   UNL     1     -38.156  -6.777 -20.379  1.00  0.00     0.097 A 
HETATM    7  C   UNL     1     -38.954  -7.636 -21.179  1.00  0.00    -0.037 A 
HETATM    8  C   UNL     1     -39.833  -8.717 -19.166  1.00  0.00     0.031 A 
HETATM    9  C   UNL     1     -39.743  -8.882 -16.220  1.00  0.00     0.157 C 
HETATM   10  C   UNL     1     -39.783  -8.597 -20.559  1.00  0.00     0.011 A 
HETATM   11  C   UNL     1     -38.939  -7.549 -22.682  1.00  0.00     0.050 C 
ENDROOT
BRANCH   4  12
HETATM   12  C   UNL     1     -37.869  -6.550 -15.088  1.00  0.00    -0.001 A 
HETATM   13  C   UNL     1     -37.488  -7.503 -14.114  1.00  0.00     0.035 A 
HETATM   14  C   UNL     1     -37.272  -7.081 -12.806  1.00  0.00     0.034 A 
HETATM   15  S   UNL     1     -36.811  -8.003 -11.494  1.00  0.00    -0.069 SA
HETATM   16  C   UNL     1     -37.421  -5.767 -12.406  1.00  0.00     0.052 A 
HETATM   17  C   UNL     1     -36.829  -6.690 -10.416  1.00  0.00     0.087 A 
HETATM   18  N   UNL     1     -37.159  -5.529 -11.079  1.00  0.00    -0.344 N 
HETATM   19  C   UNL     1     -37.190  -4.167 -10.528  1.00  0.00     0.157 C 
HETATM   20  C   UNL     1     -37.809  -4.807 -13.350  1.00  0.00     0.032 A 
HETATM   21  C   UNL     1     -38.041  -5.204 -14.677  1.00  0.00     0.016 A 
BRANCH  17  22
HETATM   22  C   UNL     1     -36.549  -6.881  -8.958  1.00  0.00    -0.002 A 
HETATM   23  C   UNL     1     -35.368  -7.473  -8.474  1.00  0.00     0.016 A 
HETATM   24  C   UNL     1     -35.138  -7.610  -7.103  1.00  0.00     0.030 A 
HETATM   25  C   UNL     1     -36.076  -7.152  -6.153  1.00  0.00     0.029 A 
HETATM   26  C   UNL     1     -37.249  -6.539  -6.641  1.00  0.00     0.030 A 
HETATM   27  C   UNL     1     -37.475  -6.400  -8.013  1.00  0.00     0.016 A 
BRANCH  25  28
HETATM   28  N   UNL     1     -35.839  -7.293  -4.736  1.00  0.00    -0.390 N 
HETATM   29  C   UNL     1     -36.806  -6.793  -3.767  1.00  0.00     0.149 C 
HETATM   30  C   UNL     1     -34.626  -7.936  -4.247  1.00  0.00     0.149 C 
ENDBRANCH  25  28
ENDBRANCH  17  22
ENDBRANCH   4  12
BRANCH   6  31
HETATM   31  S   UNL     1     -37.072  -5.529 -21.112  1.00  0.00     0.131 S 
HETATM   32  O   UNL     1     -35.588  -5.927 -21.052  1.00  0.00    -0.598 OA
HETATM   33  O   UNL     1     -37.285  -5.421 -22.629  1.00  0.00    -0.598 OA
BRANCH  31  34
HETATM   34  O   UNL     1     -37.124  -3.901 -20.561  1.00  0.00    -0.292 OA
HETATM   35  H   UNL     1     -37.200  -3.965 -19.575  1.00  0.00     0.232 HD
ENDBRANCH  31  34
ENDBRANCH   6  31
TORSDOF 5
ENDMDL
MODEL 15
REMARK VINA RESULT:      -7.9      4.512     12.661
REMARK  5 active torsions:
REMARK  status: ('A' for Active; 'I' for Inactive)
REMARK    1  A    between atoms: S_3  and  O_4 
REMARK    2  A    between atoms: S_3  and  C_15 
REMARK    3  A    between atoms: N_9  and  C_30 
REMARK    4  A    between atoms: C_11  and  C_13 
REMARK    5  A    between atoms: C_18  and  C_25 
ROOT
HETATM    1  S   UNL     1     -37.103  -6.272 -12.619  1.00  0.00    -0.068 SA
HETATM    2  N   UNL     1     -35.148  -7.720 -13.293  1.00  0.00    -0.344 N 
HETATM    3  C   UNL     1     -35.177  -7.679 -11.919  1.00  0.00     0.053 A 
HETATM    4  C   UNL     1     -36.149  -6.955 -13.843  1.00  0.00     0.087 A 
HETATM    5  C   UNL     1     -36.201  -6.919 -11.368  1.00  0.00     0.057 A 
HETATM    6  C   UNL     1     -36.382  -6.776  -9.984  1.00  0.00     0.097 A 
HETATM    7  C   UNL     1     -35.472  -7.445  -9.126  1.00  0.00    -0.037 A 
HETATM    8  C   UNL     1     -34.283  -8.345 -11.068  1.00  0.00     0.031 A 
HETATM    9  C   UNL     1     -34.175  -8.556 -14.010  1.00  0.00     0.157 C 
HETATM   10  C   UNL     1     -34.432  -8.223  -9.682  1.00  0.00     0.011 A 
HETATM   11  C   UNL     1     -35.586  -7.347  -7.628  1.00  0.00     0.050 C 
ENDROOT
BRANCH   4  12
HETATM   12  C   UNL     1     -36.420  -6.670 -15.287  1.00  0.00    -0.001 A 
HETATM   13  C   UNL     1     -35.951  -7.499 -16.332  1.00  0.00     0.035 A 
HETATM   14  C   UNL     1     -36.225  -7.146 -17.650  1.00  0.00     0.034 A 
HETATM   15  S   UNL     1     -35.793  -7.958 -19.041  1.00  0.00    -0.069 SA
HETATM   16  C   UNL     1     -36.933  -6.009 -17.991  1.00  0.00     0.052 A 
HETATM   17  C   UNL     1     -36.512  -6.816 -20.072  1.00  0.00     0.087 A 
HETATM   18  N   UNL     1     -37.118  -5.821 -19.338  1.00  0.00    -0.344 N 
HETATM   19  C   UNL     1     -37.926  -4.704 -19.848  1.00  0.00     0.157 C 
HETATM   20  C   UNL     1     -37.399  -5.165 -16.973  1.00  0.00     0.032 A 
HETATM   21  C   UNL     1     -37.130  -5.492 -15.634  1.00  0.00     0.016 A 
BRANCH  17  22
HETATM   22  C   UNL     1     -36.411  -6.943 -21.561  1.00  0.00    -0.002 A 
HETATM   23  C   UNL     1     -37.425  -6.520 -22.438  1.00  0.00     0.016 A 
HETATM   24  C   UNL     1     -37.278  -6.636 -23.823  1.00  0.00     0.030 A 
HETATM   25  C   UNL     1     -36.103  -7.173 -24.392  1.00  0.00     0.029 A 
HETATM   26  C   UNL     1     -35.079  -7.576 -23.510  1.00  0.00     0.030 A 
HETATM   27  C   UNL     1     -35.228  -7.455 -22.126  1.00  0.00     0.016 A 
BRANCH  25  28
HETATM   28  N   UNL     1     -35.950  -7.294 -25.823  1.00  0.00    -0.390 N 
HETATM   29  C   UNL     1     -36.690  -8.306 -26.566  1.00  0.00     0.149 C 
HETATM   30  C   UNL     1     -35.053  -6.406 -26.551  1.00  0.00     0.149 C 
ENDBRANCH  25  28
ENDBRANCH  17  22
ENDBRANCH   4  12
BRANCH   6  31
HETATM   31  S   UNL     1     -37.737  -5.768  -9.336  1.00  0.00     0.131 S 
HETATM   32  O   UNL     1     -39.120  -6.325  -9.711  1.00  0.00    -0.598 OA
HETATM   33  O   UNL     1     -37.801  -5.834  -7.803  1.00  0.00    -0.598 OA
BRANCH  31  34
HETATM   34  O   UNL     1     -37.817  -4.088  -9.690  1.00  0.00    -0.292 OA
HETATM   35  H   UNL     1     -38.200  -4.036 -10.603  1.00  0.00     0.232 HD
ENDBRANCH  31  34
ENDBRANCH   6  31
TORSDOF 5
ENDMDL
MODEL 16
REMARK VINA RESULT:      -7.9     32.163     35.363
REMARK  5 active torsions:
REMARK  status: ('A' for Active; 'I' for Inactive)
REMARK    1  A    between atoms: S_3  and  O_4 
REMARK    2  A    between atoms: S_3  and  C_15 
REMARK    3  A    between atoms: N_9  and  C_30 
REMARK    4  A    between atoms: C_11  and  C_13 
REMARK    5  A    between atoms: C_18  and  C_25 
ROOT
HETATM    1  S   UNL     1     -52.842  21.110 -11.134  1.00  0.00    -0.068 SA
HETATM    2  N   UNL     1     -52.817  23.543 -11.807  1.00  0.00    -0.344 N 
HETATM    3  C   UNL     1     -52.954  23.494 -10.440  1.00  0.00     0.053 A 
HETATM    4  C   UNL     1     -52.769  22.283 -12.355  1.00  0.00     0.087 A 
HETATM    5  C   UNL     1     -52.986  22.219  -9.890  1.00  0.00     0.057 A 
HETATM    6  C   UNL     1     -53.113  21.987  -8.513  1.00  0.00     0.097 A 
HETATM    7  C   UNL     1     -53.211  23.116  -7.659  1.00  0.00    -0.037 A 
HETATM    8  C   UNL     1     -53.043  24.609  -9.593  1.00  0.00     0.031 A 
HETATM    9  C   UNL     1     -52.679  24.824 -12.514  1.00  0.00     0.157 C 
HETATM   10  C   UNL     1     -53.174  24.415  -8.213  1.00  0.00     0.011 A 
HETATM   11  C   UNL     1     -53.353  22.964  -6.168  1.00  0.00     0.050 C 
ENDROOT
BRANCH   4  12
HETATM   12  C   UNL     1     -52.702  21.895 -13.800  1.00  0.00    -0.001 A 
HETATM   13  C   UNL     1     -53.012  22.793 -14.848  1.00  0.00     0.035 A 
HETATM   14  C   UNL     1     -52.949  22.342 -16.164  1.00  0.00     0.034 A 
HETATM   15  S   UNL     1     -53.255  23.204 -17.559  1.00  0.00    -0.069 SA
HETATM   16  C   UNL     1     -52.605  21.046 -16.498  1.00  0.00     0.052 A 
HETATM   17  C   UNL     1     -52.957  21.881 -18.581  1.00  0.00     0.087 A 
HETATM   18  N   UNL     1     -52.586  20.779 -17.845  1.00  0.00    -0.344 N 
HETATM   19  C   UNL     1     -52.154  19.470 -18.355  1.00  0.00     0.157 C 
HETATM   20  C   UNL     1     -52.305  20.135 -15.476  1.00  0.00     0.032 A 
HETATM   21  C   UNL     1     -52.367  20.560 -14.139  1.00  0.00     0.016 A 
BRANCH  17  22
HETATM   22  C   UNL     1     -53.139  21.991 -20.064  1.00  0.00    -0.002 A 
HETATM   23  C   UNL     1     -54.290  21.534 -20.731  1.00  0.00     0.016 A 
HETATM   24  C   UNL     1     -54.428  21.678 -22.114  1.00  0.00     0.030 A 
HETATM   25  C   UNL     1     -53.424  22.297 -22.890  1.00  0.00     0.029 A 
HETATM   26  C   UNL     1     -52.282  22.775 -22.214  1.00  0.00     0.030 A 
HETATM   27  C   UNL     1     -52.149  22.631 -20.831  1.00  0.00     0.016 A 
BRANCH  25  28
HETATM   28  N   UNL     1     -53.567  22.447 -24.319  1.00  0.00    -0.390 N 
HETATM   29  C   UNL     1     -53.315  23.731 -24.960  1.00  0.00     0.149 C 
HETATM   30  C   UNL     1     -53.967  21.317 -25.148  1.00  0.00     0.149 C 
ENDBRANCH  25  28
ENDBRANCH  17  22
ENDBRANCH   4  12
BRANCH   6  31
HETATM   31  S   UNL     1     -53.150  20.298  -7.866  1.00  0.00     0.131 S 
HETATM   32  O   UNL     1     -52.142  19.374  -8.569  1.00  0.00    -0.598 OA
HETATM   33  O   UNL     1     -52.641  20.241  -6.418  1.00  0.00    -0.598 OA
BRANCH  31  34
HETATM   34  O   UNL     1     -54.623  19.413  -7.831  1.00  0.00    -0.292 OA
HETATM   35  H   UNL     1     -54.685  18.981  -8.722  1.00  0.00     0.232 HD
ENDBRANCH  31  34
ENDBRANCH   6  31
TORSDOF 5
ENDMDL
MODEL 17
REMARK VINA RESULT:      -7.9      1.748      2.199
REMARK  5 active torsions:
REMARK  status: ('A' for Active; 'I' for Inactive)
REMARK    1  A    between atoms: S_3  and  O_4 
REMARK    2  A    between atoms: S_3  and  C_15 
REMARK    3  A    between atoms: N_9  and  C_30 
REMARK    4  A    between atoms: C_11  and  C_13 
REMARK    5  A    between atoms: C_18  and  C_25 
ROOT
HETATM    1  S   UNL     1     -37.709  -8.057 -16.206  1.00  0.00    -0.068 SA
HETATM    2  N   UNL     1     -37.338  -5.566 -16.043  1.00  0.00    -0.344 N 
HETATM    3  C   UNL     1     -37.596  -5.859 -17.360  1.00  0.00     0.053 A 
HETATM    4  C   UNL     1     -37.337  -6.699 -15.263  1.00  0.00     0.087 A 
HETATM    5  C   UNL     1     -37.828  -7.201 -17.637  1.00  0.00     0.057 A 
HETATM    6  C   UNL     1     -38.114  -7.674 -18.926  1.00  0.00     0.097 A 
HETATM    7  C   UNL     1     -38.166  -6.726 -19.981  1.00  0.00    -0.037 A 
HETATM    8  C   UNL     1     -37.655  -4.924 -18.404  1.00  0.00     0.031 A 
HETATM    9  C   UNL     1     -37.163  -4.178 -15.591  1.00  0.00     0.157 C 
HETATM   10  C   UNL     1     -37.935  -5.360 -19.704  1.00  0.00     0.011 A 
HETATM   11  C   UNL     1     -38.462  -7.142 -21.397  1.00  0.00     0.050 C 
ENDROOT
BRANCH   4  12
HETATM   12  C   UNL     1     -37.027  -6.828 -13.804  1.00  0.00    -0.001 A 
HETATM   13  C   UNL     1     -37.960  -6.504 -12.792  1.00  0.00     0.035 A 
HETATM   14  C   UNL     1     -37.580  -6.628 -11.459  1.00  0.00     0.034 A 
HETATM   15  S   UNL     1     -38.495  -6.320 -10.099  1.00  0.00    -0.069 SA
HETATM   16  C   UNL     1     -36.321  -7.046 -11.072  1.00  0.00     0.052 A 
HETATM   17  C   UNL     1     -37.242  -6.714  -9.023  1.00  0.00     0.087 A 
HETATM   18  N   UNL     1     -36.123  -7.118  -9.716  1.00  0.00    -0.344 N 
HETATM   19  C   UNL     1     -34.865  -7.630  -9.155  1.00  0.00     0.157 C 
HETATM   20  C   UNL     1     -35.375  -7.362 -12.058  1.00  0.00     0.032 A 
HETATM   21  C   UNL     1     -35.728  -7.240 -13.412  1.00  0.00     0.016 A 
BRANCH  17  22
HETATM   22  C   UNL     1     -37.418  -6.570  -7.542  1.00  0.00    -0.002 A 
HETATM   23  C   UNL     1     -37.328  -7.654  -6.650  1.00  0.00     0.016 A 
HETATM   24  C   UNL     1     -37.475  -7.470  -5.273  1.00  0.00     0.030 A 
HETATM   25  C   UNL     1     -37.710  -6.189  -4.726  1.00  0.00     0.029 A 
HETATM   26  C   UNL     1     -37.777  -5.102  -5.622  1.00  0.00     0.030 A 
HETATM   27  C   UNL     1     -37.625  -5.289  -6.998  1.00  0.00     0.016 A 
BRANCH  25  28
HETATM   28  N   UNL     1     -37.862  -5.999  -3.303  1.00  0.00    -0.390 N 
HETATM   29  C   UNL     1     -38.287  -7.099  -2.447  1.00  0.00     0.149 C 
HETATM   30  C   UNL     1     -37.595  -4.702  -2.694  1.00  0.00     0.149 C 
ENDBRANCH  25  28
ENDBRANCH  17  22
ENDBRANCH   4  12
BRANCH   6  31
HETATM   31  S   UNL     1     -38.403  -9.436 -19.214  1.00  0.00     0.131 S 
HETATM   32  O   UNL     1     -38.149 -10.288 -17.960  1.00  0.00    -0.598 OA
HETATM   33  O   UNL     1     -39.889  -9.726 -19.471  1.00  0.00    -0.598 OA
BRANCH  31  34
HETATM   34  O   UNL     1     -37.587 -10.254 -20.487  1.00  0.00    -0.292 OA
HETATM   35  H   UNL     1     -37.957  -9.867 -21.321  1.00  0.00     0.232 HD
ENDBRANCH  31  34
ENDBRANCH   6  31
TORSDOF 5
ENDMDL
MODEL 18
REMARK VINA RESULT:      -7.8     32.165     33.360
REMARK  5 active torsions:
REMARK  status: ('A' for Active; 'I' for Inactive)
REMARK    1  A    between atoms: S_3  and  O_4 
REMARK    2  A    between atoms: S_3  and  C_15 
REMARK    3  A    between atoms: N_9  and  C_30 
REMARK    4  A    between atoms: C_11  and  C_13 
REMARK    5  A    between atoms: C_18  and  C_25 
ROOT
HETATM    1  S   UNL     1     -53.614  21.391 -19.515  1.00  0.00    -0.068 SA
HETATM    2  N   UNL     1     -51.890  23.088 -18.794  1.00  0.00    -0.344 N 
HETATM    3  C   UNL     1     -51.802  22.964 -20.160  1.00  0.00     0.053 A 
HETATM    4  C   UNL     1     -52.845  22.247 -18.271  1.00  0.00     0.087 A 
HETATM    5  C   UNL     1     -52.688  22.062 -20.735  1.00  0.00     0.057 A 
HETATM    6  C   UNL     1     -52.739  21.819 -22.115  1.00  0.00     0.097 A 
HETATM    7  C   UNL     1     -51.839  22.536 -22.945  1.00  0.00    -0.037 A 
HETATM    8  C   UNL     1     -50.918  23.677 -20.984  1.00  0.00     0.031 A 
HETATM    9  C   UNL     1     -51.077  24.069 -18.063  1.00  0.00     0.157 C 
HETATM   10  C   UNL     1     -50.939  23.458 -22.366  1.00  0.00     0.011 A 
HETATM   11  C   UNL     1     -51.818  22.338 -24.438  1.00  0.00     0.050 C 
ENDROOT
BRANCH   4  12
HETATM   12  C   UNL     1     -53.201  22.018 -16.835  1.00  0.00    -0.001 A 
HETATM   13  C   UNL     1     -52.346  22.378 -15.767  1.00  0.00     0.035 A 
HETATM   14  C   UNL     1     -52.744  22.105 -14.462  1.00  0.00     0.034 A 
HETATM   15  S   UNL     1     -51.924  22.440 -13.048  1.00  0.00    -0.069 SA
HETATM   16  C   UNL     1     -53.940  21.484 -14.156  1.00  0.00     0.052 A 
HETATM   17  C   UNL     1     -53.121  21.758 -12.055  1.00  0.00     0.087 A 
HETATM   18  N   UNL     1     -54.174  21.301 -12.815  1.00  0.00    -0.344 N 
HETATM   19  C   UNL     1     -55.441  20.734 -12.333  1.00  0.00     0.157 C 
HETATM   20  C   UNL     1     -54.799  21.107 -15.198  1.00  0.00     0.032 A 
HETATM   21  C   UNL     1     -54.421  21.364 -16.526  1.00  0.00     0.016 A 
BRANCH  17  22
HETATM   22  C   UNL     1     -52.942  21.678 -10.570  1.00  0.00    -0.002 A 
HETATM   23  C   UNL     1     -52.350  20.576  -9.927  1.00  0.00     0.016 A 
HETATM   24  C   UNL     1     -52.181  20.554  -8.540  1.00  0.00     0.030 A 
HETATM   25  C   UNL     1     -52.590  21.639  -7.735  1.00  0.00     0.029 A 
HETATM   26  C   UNL     1     -53.163  22.752  -8.386  1.00  0.00     0.030 A 
HETATM   27  C   UNL     1     -53.327  22.772  -9.773  1.00  0.00     0.016 A 
BRANCH  25  28
HETATM   28  N   UNL     1     -52.416  21.617  -6.302  1.00  0.00    -0.390 N 
HETATM   29  C   UNL     1     -52.197  22.853  -5.561  1.00  0.00     0.149 C 
HETATM   30  C   UNL     1     -52.454  20.358  -5.569  1.00  0.00     0.149 C 
ENDBRANCH  25  28
ENDBRANCH  17  22
ENDBRANCH   4  12
BRANCH   6  31
HETATM   31  S   UNL     1     -53.918  20.628 -22.794  1.00  0.00     0.131 S 
HETATM   32  O   UNL     1     -55.314  20.753 -22.163  1.00  0.00    -0.598 OA
HETATM   33  O   UNL     1     -54.234  20.929 -24.267  1.00  0.00    -0.598 OA
BRANCH  31  34
HETATM   34  O   UNL     1     -53.564  18.946 -22.774  1.00  0.00    -0.292 OA
HETATM   35  H   UNL     1     -52.876  18.819 -23.476  1.00  0.00     0.232 HD
ENDBRANCH  31  34
ENDBRANCH   6  31
TORSDOF 5
ENDMDL
MODEL 19
REMARK VINA RESULT:      -7.7      4.218     11.602
REMARK  5 active torsions:
REMARK  status: ('A' for Active; 'I' for Inactive)
REMARK    1  A    between atoms: S_3  and  O_4 
REMARK    2  A    between atoms: S_3  and  C_15 
REMARK    3  A    between atoms: N_9  and  C_30 
REMARK    4  A    between atoms: C_11  and  C_13 
REMARK    5  A    between atoms: C_18  and  C_25 
ROOT
HETATM    1  S   UNL     1     -35.796  -7.954  -7.884  1.00  0.00    -0.068 SA
HETATM    2  N   UNL     1     -37.096  -5.835  -7.445  1.00  0.00    -0.344 N 
HETATM    3  C   UNL     1     -36.811  -6.404  -6.227  1.00  0.00     0.053 A 
HETATM    4  C   UNL     1     -36.618  -6.599  -8.484  1.00  0.00     0.087 A 
HETATM    5  C   UNL     1     -36.091  -7.591  -6.278  1.00  0.00     0.057 A 
HETATM    6  C   UNL     1     -35.709  -8.300  -5.130  1.00  0.00     0.097 A 
HETATM    7  C   UNL     1     -36.082  -7.766  -3.870  1.00  0.00    -0.037 A 
HETATM    8  C   UNL     1     -37.172  -5.875  -4.979  1.00  0.00     0.031 A 
HETATM    9  C   UNL     1     -37.772  -4.534  -7.539  1.00  0.00     0.157 C 
HETATM   10  C   UNL     1     -36.810  -6.557  -3.812  1.00  0.00     0.011 A 
HETATM   11  C   UNL     1     -35.719  -8.460  -2.583  1.00  0.00     0.050 C 
ENDROOT
BRANCH   4  12
HETATM   12  C   UNL     1     -36.780  -6.378  -9.956  1.00  0.00    -0.001 A 
HETATM   13  C   UNL     1     -36.334  -7.308 -10.923  1.00  0.00     0.035 A 
HETATM   14  C   UNL     1     -36.501  -7.012 -12.273  1.00  0.00     0.034 A 
HETATM   15  S   UNL     1     -36.071  -7.943 -13.588  1.00  0.00    -0.069 SA
HETATM   16  C   UNL     1     -37.078  -5.837 -12.718  1.00  0.00     0.052 A 
HETATM   17  C   UNL     1     -36.621  -6.804 -14.722  1.00  0.00     0.087 A 
HETATM   18  N   UNL     1     -37.169  -5.715 -14.082  1.00  0.00    -0.344 N 
HETATM   19  C   UNL     1     -37.838  -4.562 -14.701  1.00  0.00     0.157 C 
HETATM   20  C   UNL     1     -37.517  -4.895 -11.778  1.00  0.00     0.032 A 
HETATM   21  C   UNL     1     -37.356  -5.164 -10.409  1.00  0.00     0.016 A 
BRANCH  17  22
HETATM   22  C   UNL     1     -36.449  -7.030 -16.193  1.00  0.00    -0.002 A 
HETATM   23  C   UNL     1     -37.493  -6.865 -17.121  1.00  0.00     0.016 A 
HETATM   24  C   UNL     1     -37.282  -7.064 -18.488  1.00  0.00     0.030 A 
HETATM   25  C   UNL     1     -36.013  -7.427 -18.988  1.00  0.00     0.029 A 
HETATM   26  C   UNL     1     -34.963  -7.569 -18.057  1.00  0.00     0.030 A 
HETATM   27  C   UNL     1     -35.177  -7.367 -16.691  1.00  0.00     0.016 A 
BRANCH  25  28
HETATM   28  N   UNL     1     -35.794  -7.632 -20.401  1.00  0.00    -0.390 N 
HETATM   29  C   UNL     1     -34.541  -7.227 -21.025  1.00  0.00     0.149 C 
HETATM   30  C   UNL     1     -36.823  -8.247 -21.230  1.00  0.00     0.149 C 
ENDBRANCH  25  28
ENDBRANCH  17  22
ENDBRANCH   4  12
BRANCH   6  31
HETATM   31  S   UNL     1     -34.774  -9.842  -5.272  1.00  0.00     0.131 S 
HETATM   32  O   UNL     1     -33.616  -9.926  -4.265  1.00  0.00    -0.598 OA
HETATM   33  O   UNL     1     -35.620 -11.052  -4.848  1.00  0.00    -0.598 OA
BRANCH  31  34
HETATM   34  O   UNL     1     -34.094 -10.311  -6.780  1.00  0.00    -0.292 OA
HETATM   35  H   UNL     1     -33.342  -9.682  -6.929  1.00  0.00     0.232 HD
ENDBRANCH  31  34
ENDBRANCH   6  31
TORSDOF 5
ENDMDL
MODEL 20
REMARK VINA RESULT:      -7.6     36.678     37.234
REMARK  5 active torsions:
REMARK  status: ('A' for Active; 'I' for Inactive)
REMARK    1  A    between atoms: S_3  and  O_4 
REMARK    2  A    between atoms: S_3  and  C_15 
REMARK    3  A    between atoms: N_9  and  C_30 
REMARK    4  A    between atoms: C_11  and  C_13 
REMARK    5  A    between atoms: C_18  and  C_25 
ROOT
HETATM    1  S   UNL     1      -6.602  15.299 -16.400  1.00  0.00    -0.068 SA
HETATM    2  N   UNL     1      -7.850  17.447 -15.948  1.00  0.00    -0.344 N 
HETATM    3  C   UNL     1      -7.915  17.209 -17.300  1.00  0.00     0.053 A 
HETATM    4  C   UNL     1      -7.120  16.479 -15.299  1.00  0.00     0.087 A 
HETATM    5  C   UNL     1      -7.275  16.054 -17.732  1.00  0.00     0.057 A 
HETATM    6  C   UNL     1      -7.249  15.656 -19.077  1.00  0.00     0.097 A 
HETATM    7  C   UNL     1      -7.913  16.480 -20.022  1.00  0.00    -0.037 A 
HETATM    8  C   UNL     1      -8.576  18.018 -18.236  1.00  0.00     0.031 A 
HETATM    9  C   UNL     1      -8.557  18.582 -15.339  1.00  0.00     0.157 C 
HETATM   10  C   UNL     1      -8.569  17.652 -19.587  1.00  0.00     0.011 A 
HETATM   11  C   UNL     1      -7.936  16.134 -21.488  1.00  0.00     0.050 C 
ENDROOT
BRANCH   4  12
HETATM   12  C   UNL     1      -6.748  16.405 -13.850  1.00  0.00    -0.001 A 
HETATM   13  C   UNL     1      -7.680  16.085 -12.836  1.00  0.00     0.035 A 
HETATM   14  C   UNL     1      -7.255  16.065 -11.511  1.00  0.00     0.034 A 
HETATM   15  S   UNL     1      -8.153  15.709 -10.151  1.00  0.00    -0.069 SA
HETATM   16  C   UNL     1      -5.957  16.353 -11.133  1.00  0.00     0.052 A 
HETATM   17  C   UNL     1      -6.853  15.953  -9.085  1.00  0.00     0.087 A 
HETATM   18  N   UNL     1      -5.712  16.276  -9.785  1.00  0.00    -0.344 N 
HETATM   19  C   UNL     1      -4.360  16.470  -9.243  1.00  0.00     0.157 C 
HETATM   20  C   UNL     1      -5.018  16.685 -12.120  1.00  0.00     0.032 A 
HETATM   21  C   UNL     1      -5.420  16.720 -13.465  1.00  0.00     0.016 A 
BRANCH  17  22
HETATM   22  C   UNL     1      -7.037  15.846  -7.602  1.00  0.00    -0.002 A 
HETATM   23  C   UNL     1      -6.513  14.787  -6.839  1.00  0.00     0.016 A 
HETATM   24  C   UNL     1      -6.688  14.739  -5.454  1.00  0.00     0.030 A 
HETATM   25  C   UNL     1      -7.387  15.756  -4.769  1.00  0.00     0.029 A 
HETATM   26  C   UNL     1      -7.892  16.828  -5.534  1.00  0.00     0.030 A 
HETATM   27  C   UNL     1      -7.712  16.874  -6.919  1.00  0.00     0.016 A 
BRANCH  25  28
HETATM   28  N   UNL     1      -7.568  15.708  -3.337  1.00  0.00    -0.390 N 
HETATM   29  C   UNL     1      -6.682  14.906  -2.503  1.00  0.00     0.149 C 
HETATM   30  C   UNL     1      -8.642  16.459  -2.698  1.00  0.00     0.149 C 
ENDBRANCH  25  28
ENDBRANCH  17  22
ENDBRANCH   4  12
BRANCH   6  31
HETATM   31  S   UNL     1      -6.394  14.140 -19.569  1.00  0.00     0.131 S 
HETATM   32  O   UNL     1      -4.866  14.257 -19.443  1.00  0.00    -0.598 OA
HETATM   33  O   UNL     1      -6.682  12.991 -18.592  1.00  0.00    -0.598 OA
BRANCH  31  34
HETATM   34  O   UNL     1      -6.666  13.453 -21.121  1.00  0.00    -0.292 OA
HETATM   35  H   UNL     1      -6.357  12.514 -21.044  1.00  0.00     0.232 HD
ENDBRANCH  31  34
ENDBRANCH   6  31
TORSDOF 5
ENDMDL
