MODEL 1
REMARK VINA RESULT:      -6.5      0.000      0.000
REMARK  19 active torsions:
REMARK  status: ('A' for Active; 'I' for Inactive)
REMARK    1  A    between atoms: O_1  and  C_22 
REMARK    2  A    between atoms: C_3  and  C_4 
REMARK    3  A    between atoms: C_3  and  C_5 
REMARK    4  A    between atoms: C_4  and  C_6 
REMARK    5  A    between atoms: C_5  and  C_7 
REMARK    6  A    between atoms: C_6  and  C_8 
REMARK    7  A    between atoms: C_7  and  C_9 
REMARK    8  A    between atoms: C_8  and  C_10 
REMARK    9  A    between atoms: C_9  and  C_11 
REMARK   10  A    between atoms: C_10  and  C_12 
REMARK   11  A    between atoms: C_11  and  C_13 
REMARK   12  A    between atoms: C_12  and  C_14 
REMARK   13  A    between atoms: C_13  and  C_15 
REMARK   14  A    between atoms: C_14  and  C_16 
REMARK   15  A    between atoms: C_15  and  C_17 
REMARK   16  A    between atoms: C_16  and  C_18 
REMARK   17  A    between atoms: C_17  and  C_19 
REMARK   18  A    between atoms: C_18  and  C_20 
REMARK   19  A    between atoms: C_20  and  C_22 
ROOT
HETATM    1  O   UNL     1      -1.426  -5.951  -5.513  1.00  0.00    -0.776 OA
HETATM    2  H   UNL     1      -1.077  -5.372  -4.820  1.00  0.00     0.167 HD
ENDROOT
BRANCH   1   3
HETATM    3  C   UNL     1      -2.109  -7.076  -5.214  1.00  0.00     0.139 C 
HETATM    4  O   UNL     1      -1.996  -7.578  -4.105  1.00  0.00    -0.650 OA
BRANCH   3   5
HETATM    5  C   UNL     1      -2.977  -7.740  -6.250  1.00  0.00     0.110 C 
BRANCH   5   6
HETATM    6  C   UNL     1      -2.194  -8.255  -7.472  1.00  0.00     0.010 C 
BRANCH   6   7
HETATM    7  C   UNL     1      -2.750  -7.843  -8.851  1.00  0.00     0.001 C 
BRANCH   7   8
HETATM    8  C   UNL     1      -1.751  -7.967 -10.019  1.00  0.00     0.000 C 
BRANCH   8   9
HETATM    9  C   UNL     1      -2.167  -7.241 -11.314  1.00  0.00     0.000 C 
BRANCH   9  10
HETATM   10  C   UNL     1      -2.797  -8.142 -12.394  1.00  0.00     0.000 C 
BRANCH  10  11
HETATM   11  C   UNL     1      -2.082  -8.121 -13.759  1.00  0.00     0.000 C 
BRANCH  11  12
HETATM   12  C   UNL     1      -2.923  -7.569 -14.928  1.00  0.00     0.000 C 
BRANCH  12  13
HETATM   13  C   UNL     1      -2.187  -7.491 -16.281  1.00  0.00     0.000 C 
BRANCH  13  14
HETATM   14  C   UNL     1      -2.859  -8.261 -17.435  1.00  0.00     0.000 C 
BRANCH  14  15
HETATM   15  C   UNL     1      -2.099  -8.221 -18.776  1.00  0.00     0.000 C 
BRANCH  15  16
HETATM   16  C   UNL     1      -1.920  -6.815 -19.384  1.00  0.00     0.000 C 
BRANCH  16  17
HETATM   17  C   UNL     1      -1.926  -6.765 -20.925  1.00  0.00     0.000 C 
BRANCH  17  18
HETATM   18  C   UNL     1      -2.610  -7.963 -21.614  1.00  0.00     0.000 C 
BRANCH  18  19
HETATM   19  C   UNL     1      -2.233  -8.166 -23.095  1.00  0.00     0.000 C 
BRANCH  19  20
HETATM   20  C   UNL     1      -3.291  -7.691 -24.110  1.00  0.00     0.000 C 
BRANCH  20  21
HETATM   21  C   UNL     1      -2.767  -7.467 -25.543  1.00  0.00    -0.000 C 
BRANCH  21  22
HETATM   22  C   UNL     1      -1.810  -6.273 -25.712  1.00  0.00    -0.005 C 
HETATM   23  C   UNL     1      -0.336  -6.663 -25.619  1.00  0.00     0.005 C 
ENDBRANCH  21  22
ENDBRANCH  20  21
ENDBRANCH  19  20
ENDBRANCH  18  19
ENDBRANCH  17  18
ENDBRANCH  16  17
ENDBRANCH  15  16
ENDBRANCH  14  15
ENDBRANCH  13  14
ENDBRANCH  12  13
ENDBRANCH  11  12
ENDBRANCH  10  11
ENDBRANCH   9  10
ENDBRANCH   8   9
ENDBRANCH   7   8
ENDBRANCH   6   7
ENDBRANCH   5   6
ENDBRANCH   3   5
ENDBRANCH   1   3
TORSDOF 19
ENDMDL
MODEL 2
REMARK VINA RESULT:      -6.4      5.217     14.528
REMARK  19 active torsions:
REMARK  status: ('A' for Active; 'I' for Inactive)
REMARK    1  A    between atoms: O_1  and  C_22 
REMARK    2  A    between atoms: C_3  and  C_4 
REMARK    3  A    between atoms: C_3  and  C_5 
REMARK    4  A    between atoms: C_4  and  C_6 
REMARK    5  A    between atoms: C_5  and  C_7 
REMARK    6  A    between atoms: C_6  and  C_8 
REMARK    7  A    between atoms: C_7  and  C_9 
REMARK    8  A    between atoms: C_8  and  C_10 
REMARK    9  A    between atoms: C_9  and  C_11 
REMARK   10  A    between atoms: C_10  and  C_12 
REMARK   11  A    between atoms: C_11  and  C_13 
REMARK   12  A    between atoms: C_12  and  C_14 
REMARK   13  A    between atoms: C_13  and  C_15 
REMARK   14  A    between atoms: C_14  and  C_16 
REMARK   15  A    between atoms: C_15  and  C_17 
REMARK   16  A    between atoms: C_16  and  C_18 
REMARK   17  A    between atoms: C_17  and  C_19 
REMARK   18  A    between atoms: C_18  and  C_20 
REMARK   19  A    between atoms: C_20  and  C_22 
ROOT
HETATM    1  O   UNL     1      -2.157  -7.711 -21.597  1.00  0.00    -0.776 OA
HETATM    2  H   UNL     1      -2.033  -8.669 -21.655  1.00  0.00     0.167 HD
ENDROOT
BRANCH   1   3
HETATM    3  C   UNL     1      -2.331  -7.092 -20.410  1.00  0.00     0.139 C 
HETATM    4  O   UNL     1      -1.764  -6.032 -20.190  1.00  0.00    -0.650 OA
BRANCH   3   5
HETATM    5  C   UNL     1      -3.186  -7.719 -19.341  1.00  0.00     0.110 C 
BRANCH   5   6
HETATM    6  C   UNL     1      -2.384  -8.524 -18.302  1.00  0.00     0.010 C 
BRANCH   6   7
HETATM    7  C   UNL     1      -2.210  -7.857 -16.922  1.00  0.00     0.001 C 
BRANCH   7   8
HETATM    8  C   UNL     1      -3.510  -7.698 -16.107  1.00  0.00     0.000 C 
BRANCH   8   9
HETATM    9  C   UNL     1      -3.318  -7.184 -14.666  1.00  0.00     0.000 C 
BRANCH   9  10
HETATM   10  C   UNL     1      -2.006  -7.623 -13.986  1.00  0.00     0.000 C 
BRANCH  10  11
HETATM   11  C   UNL     1      -2.184  -8.398 -12.665  1.00  0.00     0.000 C 
BRANCH  11  12
HETATM   12  C   UNL     1      -2.329  -7.519 -11.406  1.00  0.00     0.000 C 
BRANCH  12  13
HETATM   13  C   UNL     1      -3.711  -7.577 -10.726  1.00  0.00     0.000 C 
BRANCH  13  14
HETATM   14  C   UNL     1      -3.688  -7.959  -9.232  1.00  0.00     0.000 C 
BRANCH  14  15
HETATM   15  C   UNL     1      -2.298  -7.906  -8.567  1.00  0.00     0.000 C 
BRANCH  15  16
HETATM   16  C   UNL     1      -2.270  -8.306  -7.078  1.00  0.00     0.000 C 
BRANCH  16  17
HETATM   17  C   UNL     1      -2.341  -7.128  -6.085  1.00  0.00     0.000 C 
BRANCH  17  18
HETATM   18  C   UNL     1      -2.884  -7.484  -4.687  1.00  0.00     0.000 C 
BRANCH  18  19
HETATM   19  C   UNL     1      -1.902  -8.255  -3.783  1.00  0.00     0.000 C 
BRANCH  19  20
HETATM   20  C   UNL     1      -2.527  -8.874  -2.517  1.00  0.00     0.000 C 
BRANCH  20  21
HETATM   21  C   UNL     1      -4.054  -9.089  -2.582  1.00  0.00    -0.000 C 
BRANCH  21  22
HETATM   22  C   UNL     1      -4.654  -9.882  -1.408  1.00  0.00    -0.005 C 
HETATM   23  C   UNL     1      -4.908 -11.352  -1.740  1.00  0.00     0.005 C 
ENDBRANCH  21  22
ENDBRANCH  20  21
ENDBRANCH  19  20
ENDBRANCH  18  19
ENDBRANCH  17  18
ENDBRANCH  16  17
ENDBRANCH  15  16
ENDBRANCH  14  15
ENDBRANCH  13  14
ENDBRANCH  12  13
ENDBRANCH  11  12
ENDBRANCH  10  11
ENDBRANCH   9  10
ENDBRANCH   8   9
ENDBRANCH   7   8
ENDBRANCH   6   7
ENDBRANCH   5   6
ENDBRANCH   3   5
ENDBRANCH   1   3
TORSDOF 19
ENDMDL
MODEL 3
REMARK VINA RESULT:      -6.3      1.742      3.399
REMARK  19 active torsions:
REMARK  status: ('A' for Active; 'I' for Inactive)
REMARK    1  A    between atoms: O_1  and  C_22 
REMARK    2  A    between atoms: C_3  and  C_4 
REMARK    3  A    between atoms: C_3  and  C_5 
REMARK    4  A    between atoms: C_4  and  C_6 
REMARK    5  A    between atoms: C_5  and  C_7 
REMARK    6  A    between atoms: C_6  and  C_8 
REMARK    7  A    between atoms: C_7  and  C_9 
REMARK    8  A    between atoms: C_8  and  C_10 
REMARK    9  A    between atoms: C_9  and  C_11 
REMARK   10  A    between atoms: C_10  and  C_12 
REMARK   11  A    between atoms: C_11  and  C_13 
REMARK   12  A    between atoms: C_12  and  C_14 
REMARK   13  A    between atoms: C_13  and  C_15 
REMARK   14  A    between atoms: C_14  and  C_16 
REMARK   15  A    between atoms: C_15  and  C_17 
REMARK   16  A    between atoms: C_16  and  C_18 
REMARK   17  A    between atoms: C_17  and  C_19 
REMARK   18  A    between atoms: C_18  and  C_20 
REMARK   19  A    between atoms: C_20  and  C_22 
ROOT
HETATM    1  O   UNL     1      -2.282  -9.488  -1.948  1.00  0.00    -0.776 OA
HETATM    2  H   UNL     1      -2.506  -9.378  -1.013  1.00  0.00     0.167 HD
ENDROOT
BRANCH   1   3
HETATM    3  C   UNL     1      -2.847  -8.721  -2.904  1.00  0.00     0.139 C 
HETATM    4  O   UNL     1      -4.042  -8.471  -2.853  1.00  0.00    -0.650 OA
BRANCH   3   5
HETATM    5  C   UNL     1      -2.023  -8.203  -4.053  1.00  0.00     0.110 C 
BRANCH   5   6
HETATM    6  C   UNL     1      -2.854  -7.494  -5.137  1.00  0.00     0.010 C 
BRANCH   6   7
HETATM    7  C   UNL     1      -2.286  -7.555  -6.570  1.00  0.00     0.001 C 
BRANCH   7   8
HETATM    8  C   UNL     1      -3.048  -8.488  -7.533  1.00  0.00     0.000 C 
BRANCH   8   9
HETATM    9  C   UNL     1      -3.234  -7.938  -8.962  1.00  0.00     0.000 C 
BRANCH   9  10
HETATM   10  C   UNL     1      -1.928  -7.668  -9.733  1.00  0.00     0.000 C 
BRANCH  10  11
HETATM   11  C   UNL     1      -2.110  -7.024 -11.122  1.00  0.00     0.000 C 
BRANCH  11  12
HETATM   12  C   UNL     1      -2.275  -8.020 -12.287  1.00  0.00     0.000 C 
BRANCH  12  13
HETATM   13  C   UNL     1      -3.729  -8.259 -12.740  1.00  0.00     0.000 C 
BRANCH  13  14
HETATM   14  C   UNL     1      -4.014  -7.933 -14.219  1.00  0.00     0.000 C 
BRANCH  14  15
HETATM   15  C   UNL     1      -2.912  -7.124 -14.933  1.00  0.00     0.000 C 
BRANCH  15  16
HETATM   16  C   UNL     1      -2.030  -7.937 -15.902  1.00  0.00     0.000 C 
BRANCH  16  17
HETATM   17  C   UNL     1      -2.082  -7.476 -17.373  1.00  0.00     0.000 C 
BRANCH  17  18
HETATM   18  C   UNL     1      -2.830  -8.427 -18.329  1.00  0.00     0.000 C 
BRANCH  18  19
HETATM   19  C   UNL     1      -3.741  -7.732 -19.360  1.00  0.00     0.000 C 
BRANCH  19  20
HETATM   20  C   UNL     1      -3.007  -7.105 -20.562  1.00  0.00     0.000 C 
BRANCH  20  21
HETATM   21  C   UNL     1      -2.201  -8.097 -21.425  1.00  0.00    -0.000 C 
BRANCH  21  22
HETATM   22  C   UNL     1      -2.245  -7.833 -22.941  1.00  0.00    -0.005 C 
HETATM   23  C   UNL     1      -3.610  -8.121 -23.564  1.00  0.00     0.005 C 
ENDBRANCH  21  22
ENDBRANCH  20  21
ENDBRANCH  19  20
ENDBRANCH  18  19
ENDBRANCH  17  18
ENDBRANCH  16  17
ENDBRANCH  15  16
ENDBRANCH  14  15
ENDBRANCH  13  14
ENDBRANCH  12  13
ENDBRANCH  11  12
ENDBRANCH  10  11
ENDBRANCH   9  10
ENDBRANCH   8   9
ENDBRANCH   7   8
ENDBRANCH   6   7
ENDBRANCH   5   6
ENDBRANCH   3   5
ENDBRANCH   1   3
TORSDOF 19
ENDMDL
MODEL 4
REMARK VINA RESULT:      -5.8      5.627     14.320
REMARK  19 active torsions:
REMARK  status: ('A' for Active; 'I' for Inactive)
REMARK    1  A    between atoms: O_1  and  C_22 
REMARK    2  A    between atoms: C_3  and  C_4 
REMARK    3  A    between atoms: C_3  and  C_5 
REMARK    4  A    between atoms: C_4  and  C_6 
REMARK    5  A    between atoms: C_5  and  C_7 
REMARK    6  A    between atoms: C_6  and  C_8 
REMARK    7  A    between atoms: C_7  and  C_9 
REMARK    8  A    between atoms: C_8  and  C_10 
REMARK    9  A    between atoms: C_9  and  C_11 
REMARK   10  A    between atoms: C_10  and  C_12 
REMARK   11  A    between atoms: C_11  and  C_13 
REMARK   12  A    between atoms: C_12  and  C_14 
REMARK   13  A    between atoms: C_13  and  C_15 
REMARK   14  A    between atoms: C_14  and  C_16 
REMARK   15  A    between atoms: C_15  and  C_17 
REMARK   16  A    between atoms: C_16  and  C_18 
REMARK   17  A    between atoms: C_17  and  C_19 
REMARK   18  A    between atoms: C_18  and  C_20 
REMARK   19  A    between atoms: C_20  and  C_22 
ROOT
HETATM    1  O   UNL     1      -2.154  -9.085 -22.957  1.00  0.00    -0.776 OA
HETATM    2  H   UNL     1      -2.519  -9.910 -22.605  1.00  0.00     0.167 HD
ENDROOT
BRANCH   1   3
HETATM    3  C   UNL     1      -2.473  -7.888 -22.422  1.00  0.00     0.139 C 
HETATM    4  O   UNL     1      -1.780  -6.911 -22.667  1.00  0.00    -0.650 OA
BRANCH   3   5
HETATM    5  C   UNL     1      -3.651  -7.755 -21.493  1.00  0.00     0.110 C 
BRANCH   5   6
HETATM    6  C   UNL     1      -3.257  -7.455 -20.035  1.00  0.00     0.010 C 
BRANCH   6   7
HETATM    7  C   UNL     1      -1.858  -7.941 -19.602  1.00  0.00     0.001 C 
BRANCH   7   8
HETATM    8  C   UNL     1      -1.780  -8.503 -18.168  1.00  0.00     0.000 C 
BRANCH   8   9
HETATM    9  C   UNL     1      -2.765  -7.870 -17.165  1.00  0.00     0.000 C 
BRANCH   9  10
HETATM   10  C   UNL     1      -2.165  -7.531 -15.786  1.00  0.00     0.000 C 
BRANCH  10  11
HETATM   11  C   UNL     1      -3.161  -7.584 -14.610  1.00  0.00     0.000 C 
BRANCH  11  12
HETATM   12  C   UNL     1      -2.785  -8.564 -13.480  1.00  0.00     0.000 C 
BRANCH  12  13
HETATM   13  C   UNL     1      -2.270  -7.902 -12.187  1.00  0.00     0.000 C 
BRANCH  13  14
HETATM   14  C   UNL     1      -3.362  -7.539 -11.160  1.00  0.00     0.000 C 
BRANCH  14  15
HETATM   15  C   UNL     1      -2.841  -6.945  -9.836  1.00  0.00     0.000 C 
BRANCH  15  16
HETATM   16  C   UNL     1      -1.726  -7.760  -9.149  1.00  0.00     0.000 C 
BRANCH  16  17
HETATM   17  C   UNL     1      -2.199  -8.672  -7.999  1.00  0.00     0.000 C 
BRANCH  17  18
HETATM   18  C   UNL     1      -3.037  -7.971  -6.912  1.00  0.00     0.000 C 
BRANCH  18  19
HETATM   19  C   UNL     1      -2.227  -7.406  -5.728  1.00  0.00     0.000 C 
BRANCH  19  20
HETATM   20  C   UNL     1      -2.876  -7.597  -4.342  1.00  0.00     0.000 C 
BRANCH  20  21
HETATM   21  C   UNL     1      -2.238  -8.697  -3.469  1.00  0.00    -0.000 C 
BRANCH  21  22
HETATM   22  C   UNL     1      -3.157  -9.286  -2.383  1.00  0.00    -0.005 C 
HETATM   23  C   UNL     1      -4.609  -8.828  -2.509  1.00  0.00     0.005 C 
ENDBRANCH  21  22
ENDBRANCH  20  21
ENDBRANCH  19  20
ENDBRANCH  18  19
ENDBRANCH  17  18
ENDBRANCH  16  17
ENDBRANCH  15  16
ENDBRANCH  14  15
ENDBRANCH  13  14
ENDBRANCH  12  13
ENDBRANCH  11  12
ENDBRANCH  10  11
ENDBRANCH   9  10
ENDBRANCH   8   9
ENDBRANCH   7   8
ENDBRANCH   6   7
ENDBRANCH   5   6
ENDBRANCH   3   5
ENDBRANCH   1   3
TORSDOF 19
ENDMDL
MODEL 5
REMARK VINA RESULT:      -5.8      1.904      3.412
REMARK  19 active torsions:
REMARK  status: ('A' for Active; 'I' for Inactive)
REMARK    1  A    between atoms: O_1  and  C_22 
REMARK    2  A    between atoms: C_3  and  C_4 
REMARK    3  A    between atoms: C_3  and  C_5 
REMARK    4  A    between atoms: C_4  and  C_6 
REMARK    5  A    between atoms: C_5  and  C_7 
REMARK    6  A    between atoms: C_6  and  C_8 
REMARK    7  A    between atoms: C_7  and  C_9 
REMARK    8  A    between atoms: C_8  and  C_10 
REMARK    9  A    between atoms: C_9  and  C_11 
REMARK   10  A    between atoms: C_10  and  C_12 
REMARK   11  A    between atoms: C_11  and  C_13 
REMARK   12  A    between atoms: C_12  and  C_14 
REMARK   13  A    between atoms: C_13  and  C_15 
REMARK   14  A    between atoms: C_14  and  C_16 
REMARK   15  A    between atoms: C_15  and  C_17 
REMARK   16  A    between atoms: C_16  and  C_18 
REMARK   17  A    between atoms: C_17  and  C_19 
REMARK   18  A    between atoms: C_18  and  C_20 
REMARK   19  A    between atoms: C_20  and  C_22 
ROOT
HETATM    1  O   UNL     1      -3.634  -8.131  -7.750  1.00  0.00    -0.776 OA
HETATM    2  H   UNL     1      -3.958  -8.979  -7.417  1.00  0.00     0.167 HD
ENDROOT
BRANCH   1   3
HETATM    3  C   UNL     1      -2.798  -8.060  -8.808  1.00  0.00     0.139 C 
HETATM    4  O   UNL     1      -1.712  -8.619  -8.760  1.00  0.00    -0.650 OA
BRANCH   3   5
HETATM    5  C   UNL     1      -3.177  -7.265 -10.029  1.00  0.00     0.110 C 
BRANCH   5   6
HETATM    6  C   UNL     1      -2.291  -7.557 -11.254  1.00  0.00     0.010 C 
BRANCH   6   7
HETATM    7  C   UNL     1      -2.979  -8.291 -12.423  1.00  0.00     0.001 C 
BRANCH   7   8
HETATM    8  C   UNL     1      -2.143  -8.384 -13.716  1.00  0.00     0.000 C 
BRANCH   8   9
HETATM    9  C   UNL     1      -1.649  -7.033 -14.272  1.00  0.00     0.000 C 
BRANCH   9  10
HETATM   10  C   UNL     1      -2.080  -6.726 -15.719  1.00  0.00     0.000 C 
BRANCH  10  11
HETATM   11  C   UNL     1      -2.772  -7.891 -16.455  1.00  0.00     0.000 C 
BRANCH  11  12
HETATM   12  C   UNL     1      -2.356  -8.073 -17.928  1.00  0.00     0.000 C 
BRANCH  12  13
HETATM   13  C   UNL     1      -3.523  -8.132 -18.934  1.00  0.00     0.000 C 
BRANCH  13  14
HETATM   14  C   UNL     1      -3.451  -7.100 -20.077  1.00  0.00     0.000 C 
BRANCH  14  15
HETATM   15  C   UNL     1      -2.149  -7.130 -20.903  1.00  0.00     0.000 C 
BRANCH  15  16
HETATM   16  C   UNL     1      -1.871  -8.459 -21.635  1.00  0.00     0.000 C 
BRANCH  16  17
HETATM   17  C   UNL     1      -2.437  -8.544 -23.068  1.00  0.00     0.000 C 
BRANCH  17  18
HETATM   18  C   UNL     1      -2.240  -7.277 -23.924  1.00  0.00     0.000 C 
BRANCH  18  19
HETATM   19  C   UNL     1      -3.189  -7.152 -25.132  1.00  0.00     0.000 C 
BRANCH  19  20
HETATM   20  C   UNL     1      -2.660  -6.286 -26.292  1.00  0.00     0.000 C 
BRANCH  20  21
HETATM   21  C   UNL     1      -2.771  -4.763 -26.073  1.00  0.00    -0.000 C 
BRANCH  21  22
HETATM   22  C   UNL     1      -4.198  -4.192 -26.157  1.00  0.00    -0.005 C 
HETATM   23  C   UNL     1      -4.239  -2.665 -26.121  1.00  0.00     0.005 C 
ENDBRANCH  21  22
ENDBRANCH  20  21
ENDBRANCH  19  20
ENDBRANCH  18  19
ENDBRANCH  17  18
ENDBRANCH  16  17
ENDBRANCH  15  16
ENDBRANCH  14  15
ENDBRANCH  13  14
ENDBRANCH  12  13
ENDBRANCH  11  12
ENDBRANCH  10  11
ENDBRANCH   9  10
ENDBRANCH   8   9
ENDBRANCH   7   8
ENDBRANCH   6   7
ENDBRANCH   5   6
ENDBRANCH   3   5
ENDBRANCH   1   3
TORSDOF 19
ENDMDL
MODEL 6
REMARK VINA RESULT:      -5.7      1.028      1.877
REMARK  19 active torsions:
REMARK  status: ('A' for Active; 'I' for Inactive)
REMARK    1  A    between atoms: O_1  and  C_22 
REMARK    2  A    between atoms: C_3  and  C_4 
REMARK    3  A    between atoms: C_3  and  C_5 
REMARK    4  A    between atoms: C_4  and  C_6 
REMARK    5  A    between atoms: C_5  and  C_7 
REMARK    6  A    between atoms: C_6  and  C_8 
REMARK    7  A    between atoms: C_7  and  C_9 
REMARK    8  A    between atoms: C_8  and  C_10 
REMARK    9  A    between atoms: C_9  and  C_11 
REMARK   10  A    between atoms: C_10  and  C_12 
REMARK   11  A    between atoms: C_11  and  C_13 
REMARK   12  A    between atoms: C_12  and  C_14 
REMARK   13  A    between atoms: C_13  and  C_15 
REMARK   14  A    between atoms: C_14  and  C_16 
REMARK   15  A    between atoms: C_15  and  C_17 
REMARK   16  A    between atoms: C_16  and  C_18 
REMARK   17  A    between atoms: C_17  and  C_19 
REMARK   18  A    between atoms: C_18  and  C_20 
REMARK   19  A    between atoms: C_20  and  C_22 
ROOT
HETATM    1  O   UNL     1      -1.056  -7.919  -4.576  1.00  0.00    -0.776 OA
HETATM    2  H   UNL     1      -0.489  -7.140  -4.491  1.00  0.00     0.167 HD
ENDROOT
BRANCH   1   3
HETATM    3  C   UNL     1      -2.397  -7.808  -4.684  1.00  0.00     0.139 C 
HETATM    4  O   UNL     1      -3.112  -8.177  -3.764  1.00  0.00    -0.650 OA
BRANCH   3   5
HETATM    5  C   UNL     1      -3.019  -7.270  -5.945  1.00  0.00     0.110 C 
BRANCH   5   6
HETATM    6  C   UNL     1      -2.613  -8.044  -7.213  1.00  0.00     0.010 C 
BRANCH   6   7
HETATM    7  C   UNL     1      -3.751  -8.347  -8.210  1.00  0.00     0.001 C 
BRANCH   7   8
HETATM    8  C   UNL     1      -3.589  -7.696  -9.598  1.00  0.00     0.000 C 
BRANCH   8   9
HETATM    9  C   UNL     1      -2.150  -7.686 -10.151  1.00  0.00     0.000 C 
BRANCH   9  10
HETATM   10  C   UNL     1      -2.019  -7.242 -11.621  1.00  0.00     0.000 C 
BRANCH  10  11
HETATM   11  C   UNL     1      -2.323  -8.336 -12.663  1.00  0.00     0.000 C 
BRANCH  11  12
HETATM   12  C   UNL     1      -3.664  -8.176 -13.407  1.00  0.00     0.000 C 
BRANCH  12  13
HETATM   13  C   UNL     1      -3.605  -7.311 -14.681  1.00  0.00     0.000 C 
BRANCH  13  14
HETATM   14  C   UNL     1      -2.419  -7.613 -15.620  1.00  0.00     0.000 C 
BRANCH  14  15
HETATM   15  C   UNL     1      -2.810  -8.016 -17.056  1.00  0.00     0.000 C 
BRANCH  15  16
HETATM   16  C   UNL     1      -1.682  -8.670 -17.880  1.00  0.00     0.000 C 
BRANCH  16  17
HETATM   17  C   UNL     1      -1.831  -8.536 -19.409  1.00  0.00     0.000 C 
BRANCH  17  18
HETATM   18  C   UNL     1      -2.662  -7.325 -19.881  1.00  0.00     0.000 C 
BRANCH  18  19
HETATM   19  C   UNL     1      -2.321  -6.811 -21.294  1.00  0.00     0.000 C 
BRANCH  19  20
HETATM   20  C   UNL     1      -2.011  -7.908 -22.331  1.00  0.00     0.000 C 
BRANCH  20  21
HETATM   21  C   UNL     1      -3.231  -8.421 -23.124  1.00  0.00    -0.000 C 
BRANCH  21  22
HETATM   22  C   UNL     1      -3.673  -7.527 -24.296  1.00  0.00    -0.005 C 
HETATM   23  C   UNL     1      -2.565  -7.283 -25.320  1.00  0.00     0.005 C 
ENDBRANCH  21  22
ENDBRANCH  20  21
ENDBRANCH  19  20
ENDBRANCH  18  19
ENDBRANCH  17  18
ENDBRANCH  16  17
ENDBRANCH  15  16
ENDBRANCH  14  15
ENDBRANCH  13  14
ENDBRANCH  12  13
ENDBRANCH  11  12
ENDBRANCH  10  11
ENDBRANCH   9  10
ENDBRANCH   8   9
ENDBRANCH   7   8
ENDBRANCH   6   7
ENDBRANCH   5   6
ENDBRANCH   3   5
ENDBRANCH   1   3
TORSDOF 19
ENDMDL
MODEL 7
REMARK VINA RESULT:      -5.5      5.161     13.392
REMARK  19 active torsions:
REMARK  status: ('A' for Active; 'I' for Inactive)
REMARK    1  A    between atoms: O_1  and  C_22 
REMARK    2  A    between atoms: C_3  and  C_4 
REMARK    3  A    between atoms: C_3  and  C_5 
REMARK    4  A    between atoms: C_4  and  C_6 
REMARK    5  A    between atoms: C_5  and  C_7 
REMARK    6  A    between atoms: C_6  and  C_8 
REMARK    7  A    between atoms: C_7  and  C_9 
REMARK    8  A    between atoms: C_8  and  C_10 
REMARK    9  A    between atoms: C_9  and  C_11 
REMARK   10  A    between atoms: C_10  and  C_12 
REMARK   11  A    between atoms: C_11  and  C_13 
REMARK   12  A    between atoms: C_12  and  C_14 
REMARK   13  A    between atoms: C_13  and  C_15 
REMARK   14  A    between atoms: C_14  and  C_16 
REMARK   15  A    between atoms: C_15  and  C_17 
REMARK   16  A    between atoms: C_16  and  C_18 
REMARK   17  A    between atoms: C_17  and  C_19 
REMARK   18  A    between atoms: C_18  and  C_20 
REMARK   19  A    between atoms: C_20  and  C_22 
ROOT
HETATM    1  O   UNL     1      -5.153  -8.232 -20.784  1.00  0.00    -0.776 OA
HETATM    2  H   UNL     1      -4.715  -7.373 -20.709  1.00  0.00     0.167 HD
ENDROOT
BRANCH   1   3
HETATM    3  C   UNL     1      -5.689  -8.652 -21.949  1.00  0.00     0.139 C 
HETATM    4  O   UNL     1      -6.853  -9.023 -21.983  1.00  0.00    -0.650 OA
BRANCH   3   5
HETATM    5  C   UNL     1      -4.851  -8.705 -23.199  1.00  0.00     0.110 C 
BRANCH   5   6
HETATM    6  C   UNL     1      -3.643  -7.750 -23.173  1.00  0.00     0.010 C 
BRANCH   6   7
HETATM    7  C   UNL     1      -2.276  -8.400 -22.875  1.00  0.00     0.001 C 
BRANCH   7   8
HETATM    8  C   UNL     1      -1.858  -8.385 -21.391  1.00  0.00     0.000 C 
BRANCH   8   9
HETATM    9  C   UNL     1      -2.214  -7.093 -20.626  1.00  0.00     0.000 C 
BRANCH   9  10
HETATM   10  C   UNL     1      -1.796  -7.077 -19.143  1.00  0.00     0.000 C 
BRANCH  10  11
HETATM   11  C   UNL     1      -2.246  -8.303 -18.324  1.00  0.00     0.000 C 
BRANCH  11  12
HETATM   12  C   UNL     1      -2.887  -7.978 -16.960  1.00  0.00     0.000 C 
BRANCH  12  13
HETATM   13  C   UNL     1      -1.889  -7.769 -15.804  1.00  0.00     0.000 C 
BRANCH  13  14
HETATM   14  C   UNL     1      -2.520  -7.320 -14.471  1.00  0.00     0.000 C 
BRANCH  14  15
HETATM   15  C   UNL     1      -2.747  -8.447 -13.444  1.00  0.00     0.000 C 
BRANCH  15  16
HETATM   16  C   UNL     1      -3.074  -7.972 -12.014  1.00  0.00     0.000 C 
BRANCH  16  17
HETATM   17  C   UNL     1      -2.008  -7.062 -11.370  1.00  0.00     0.000 C 
BRANCH  17  18
HETATM   18  C   UNL     1      -1.852  -7.217  -9.844  1.00  0.00     0.000 C 
BRANCH  18  19
HETATM   19  C   UNL     1      -3.040  -7.894  -9.132  1.00  0.00     0.000 C 
BRANCH  19  20
HETATM   20  C   UNL     1      -2.703  -8.550  -7.778  1.00  0.00     0.000 C 
BRANCH  20  21
HETATM   21  C   UNL     1      -2.174  -7.583  -6.699  1.00  0.00    -0.000 C 
BRANCH  21  22
HETATM   22  C   UNL     1      -3.065  -7.442  -5.452  1.00  0.00    -0.005 C 
HETATM   23  C   UNL     1      -2.355  -7.834  -4.157  1.00  0.00     0.005 C 
ENDBRANCH  21  22
ENDBRANCH  20  21
ENDBRANCH  19  20
ENDBRANCH  18  19
ENDBRANCH  17  18
ENDBRANCH  16  17
ENDBRANCH  15  16
ENDBRANCH  14  15
ENDBRANCH  13  14
ENDBRANCH  12  13
ENDBRANCH  11  12
ENDBRANCH  10  11
ENDBRANCH   9  10
ENDBRANCH   8   9
ENDBRANCH   7   8
ENDBRANCH   6   7
ENDBRANCH   5   6
ENDBRANCH   3   5
ENDBRANCH   1   3
TORSDOF 19
ENDMDL
MODEL 8
REMARK VINA RESULT:      -5.3      1.843      3.539
REMARK  19 active torsions:
REMARK  status: ('A' for Active; 'I' for Inactive)
REMARK    1  A    between atoms: O_1  and  C_22 
REMARK    2  A    between atoms: C_3  and  C_4 
REMARK    3  A    between atoms: C_3  and  C_5 
REMARK    4  A    between atoms: C_4  and  C_6 
REMARK    5  A    between atoms: C_5  and  C_7 
REMARK    6  A    between atoms: C_6  and  C_8 
REMARK    7  A    between atoms: C_7  and  C_9 
REMARK    8  A    between atoms: C_8  and  C_10 
REMARK    9  A    between atoms: C_9  and  C_11 
REMARK   10  A    between atoms: C_10  and  C_12 
REMARK   11  A    between atoms: C_11  and  C_13 
REMARK   12  A    between atoms: C_12  and  C_14 
REMARK   13  A    between atoms: C_13  and  C_15 
REMARK   14  A    between atoms: C_14  and  C_16 
REMARK   15  A    between atoms: C_15  and  C_17 
REMARK   16  A    between atoms: C_16  and  C_18 
REMARK   17  A    between atoms: C_17  and  C_19 
REMARK   18  A    between atoms: C_18  and  C_20 
REMARK   19  A    between atoms: C_20  and  C_22 
ROOT
HETATM    1  O   UNL     1      -3.732  -8.164  -7.964  1.00  0.00    -0.776 OA
HETATM    2  H   UNL     1      -4.178  -9.014  -7.844  1.00  0.00     0.167 HD
ENDROOT
BRANCH   1   3
HETATM    3  C   UNL     1      -2.890  -7.947  -8.996  1.00  0.00     0.139 C 
HETATM    4  O   UNL     1      -1.689  -8.117  -8.845  1.00  0.00    -0.650 OA
BRANCH   3   5
HETATM    5  C   UNL     1      -3.416  -7.460 -10.320  1.00  0.00     0.110 C 
BRANCH   5   6
HETATM    6  C   UNL     1      -2.391  -7.559 -11.465  1.00  0.00     0.010 C 
BRANCH   6   7
HETATM    7  C   UNL     1      -2.878  -8.268 -12.745  1.00  0.00     0.001 C 
BRANCH   7   8
HETATM    8  C   UNL     1      -1.870  -8.266 -13.913  1.00  0.00     0.000 C 
BRANCH   8   9
HETATM    9  C   UNL     1      -1.701  -6.909 -14.627  1.00  0.00     0.000 C 
BRANCH   9  10
HETATM   10  C   UNL     1      -2.132  -6.891 -16.106  1.00  0.00     0.000 C 
BRANCH  10  11
HETATM   11  C   UNL     1      -2.187  -8.274 -16.787  1.00  0.00     0.000 C 
BRANCH  11  12
HETATM   12  C   UNL     1      -2.136  -8.246 -18.327  1.00  0.00     0.000 C 
BRANCH  12  13
HETATM   13  C   UNL     1      -3.454  -7.839 -19.017  1.00  0.00     0.000 C 
BRANCH  13  14
HETATM   14  C   UNL     1      -3.292  -6.921 -20.244  1.00  0.00     0.000 C 
BRANCH  14  15
HETATM   15  C   UNL     1      -2.155  -7.315 -21.209  1.00  0.00     0.000 C 
BRANCH  15  16
HETATM   16  C   UNL     1      -2.482  -8.483 -22.161  1.00  0.00     0.000 C 
BRANCH  16  17
HETATM   17  C   UNL     1      -1.907  -8.344 -23.585  1.00  0.00     0.000 C 
BRANCH  17  18
HETATM   18  C   UNL     1      -2.266  -7.031 -24.309  1.00  0.00     0.000 C 
BRANCH  18  19
HETATM   19  C   UNL     1      -2.231  -7.104 -25.848  1.00  0.00     0.000 C 
BRANCH  19  20
HETATM   20  C   UNL     1      -0.978  -6.492 -26.504  1.00  0.00     0.000 C 
BRANCH  20  21
HETATM   21  C   UNL     1       0.337  -7.253 -26.235  1.00  0.00    -0.000 C 
BRANCH  21  22
HETATM   22  C   UNL     1       1.542  -6.369 -25.867  1.00  0.00    -0.005 C 
HETATM   23  C   UNL     1       2.887  -7.059 -26.091  1.00  0.00     0.005 C 
ENDBRANCH  21  22
ENDBRANCH  20  21
ENDBRANCH  19  20
ENDBRANCH  18  19
ENDBRANCH  17  18
ENDBRANCH  16  17
ENDBRANCH  15  16
ENDBRANCH  14  15
ENDBRANCH  13  14
ENDBRANCH  12  13
ENDBRANCH  11  12
ENDBRANCH  10  11
ENDBRANCH   9  10
ENDBRANCH   8   9
ENDBRANCH   7   8
ENDBRANCH   6   7
ENDBRANCH   5   6
ENDBRANCH   3   5
ENDBRANCH   1   3
TORSDOF 19
ENDMDL
MODEL 9
REMARK VINA RESULT:      -4.9     33.040     33.916
REMARK  19 active torsions:
REMARK  status: ('A' for Active; 'I' for Inactive)
REMARK    1  A    between atoms: O_1  and  C_22 
REMARK    2  A    between atoms: C_3  and  C_4 
REMARK    3  A    between atoms: C_3  and  C_5 
REMARK    4  A    between atoms: C_4  and  C_6 
REMARK    5  A    between atoms: C_5  and  C_7 
REMARK    6  A    between atoms: C_6  and  C_8 
REMARK    7  A    between atoms: C_7  and  C_9 
REMARK    8  A    between atoms: C_8  and  C_10 
REMARK    9  A    between atoms: C_9  and  C_11 
REMARK   10  A    between atoms: C_10  and  C_12 
REMARK   11  A    between atoms: C_11  and  C_13 
REMARK   12  A    between atoms: C_12  and  C_14 
REMARK   13  A    between atoms: C_13  and  C_15 
REMARK   14  A    between atoms: C_14  and  C_16 
REMARK   15  A    between atoms: C_15  and  C_17 
REMARK   16  A    between atoms: C_16  and  C_18 
REMARK   17  A    between atoms: C_17  and  C_19 
REMARK   18  A    between atoms: C_18  and  C_20 
REMARK   19  A    between atoms: C_20  and  C_22 
ROOT
HETATM    1  O   UNL     1     -34.124 -10.141 -10.862  1.00  0.00    -0.776 OA
HETATM    2  H   UNL     1     -34.312 -11.071 -10.672  1.00  0.00     0.167 HD
ENDROOT
BRANCH   1   3
HETATM    3  C   UNL     1     -34.294  -9.182  -9.928  1.00  0.00     0.139 C 
HETATM    4  O   UNL     1     -33.823  -9.334  -8.810  1.00  0.00    -0.650 OA
BRANCH   3   5
HETATM    5  C   UNL     1     -35.094  -7.945 -10.240  1.00  0.00     0.110 C 
BRANCH   5   6
HETATM    6  C   UNL     1     -34.955  -7.472 -11.699  1.00  0.00     0.010 C 
BRANCH   6   7
HETATM    7  C   UNL     1     -35.954  -6.389 -12.154  1.00  0.00     0.001 C 
BRANCH   7   8
HETATM    8  C   UNL     1     -37.323  -6.922 -12.625  1.00  0.00     0.000 C 
BRANCH   8   9
HETATM    9  C   UNL     1     -37.754  -6.460 -14.032  1.00  0.00     0.000 C 
BRANCH   9  10
HETATM   10  C   UNL     1     -37.652  -4.943 -14.280  1.00  0.00     0.000 C 
BRANCH  10  11
HETATM   11  C   UNL     1     -36.942  -4.542 -15.589  1.00  0.00     0.000 C 
BRANCH  11  12
HETATM   12  C   UNL     1     -37.757  -4.785 -16.875  1.00  0.00     0.000 C 
BRANCH  12  13
HETATM   13  C   UNL     1     -37.185  -5.865 -17.815  1.00  0.00     0.000 C 
BRANCH  13  14
HETATM   14  C   UNL     1     -37.731  -5.831 -19.257  1.00  0.00     0.000 C 
BRANCH  14  15
HETATM   15  C   UNL     1     -37.081  -6.840 -20.224  1.00  0.00     0.000 C 
BRANCH  15  16
HETATM   16  C   UNL     1     -35.784  -6.352 -20.902  1.00  0.00     0.000 C 
BRANCH  16  17
HETATM   17  C   UNL     1     -34.638  -7.384 -20.934  1.00  0.00     0.000 C 
BRANCH  17  18
HETATM   18  C   UNL     1     -34.207  -7.924 -19.556  1.00  0.00     0.000 C 
BRANCH  18  19
HETATM   19  C   UNL     1     -34.303  -9.454 -19.396  1.00  0.00     0.000 C 
BRANCH  19  20
HETATM   20  C   UNL     1     -34.785  -9.939 -18.014  1.00  0.00     0.000 C 
BRANCH  20  21
HETATM   21  C   UNL     1     -35.622  -8.915 -17.220  1.00  0.00    -0.000 C 
BRANCH  21  22
HETATM   22  C   UNL     1     -35.082  -8.573 -15.819  1.00  0.00    -0.005 C 
HETATM   23  C   UNL     1     -34.417  -7.200 -15.748  1.00  0.00     0.005 C 
ENDBRANCH  21  22
ENDBRANCH  20  21
ENDBRANCH  19  20
ENDBRANCH  18  19
ENDBRANCH  17  18
ENDBRANCH  16  17
ENDBRANCH  15  16
ENDBRANCH  14  15
ENDBRANCH  13  14
ENDBRANCH  12  13
ENDBRANCH  11  12
ENDBRANCH  10  11
ENDBRANCH   9  10
ENDBRANCH   8   9
ENDBRANCH   7   8
ENDBRANCH   6   7
ENDBRANCH   5   6
ENDBRANCH   3   5
ENDBRANCH   1   3
TORSDOF 19
ENDMDL
MODEL 10
REMARK VINA RESULT:      -4.8     33.571     34.332
REMARK  19 active torsions:
REMARK  status: ('A' for Active; 'I' for Inactive)
REMARK    1  A    between atoms: O_1  and  C_22 
REMARK    2  A    between atoms: C_3  and  C_4 
REMARK    3  A    between atoms: C_3  and  C_5 
REMARK    4  A    between atoms: C_4  and  C_6 
REMARK    5  A    between atoms: C_5  and  C_7 
REMARK    6  A    between atoms: C_6  and  C_8 
REMARK    7  A    between atoms: C_7  and  C_9 
REMARK    8  A    between atoms: C_8  and  C_10 
REMARK    9  A    between atoms: C_9  and  C_11 
REMARK   10  A    between atoms: C_10  and  C_12 
REMARK   11  A    between atoms: C_11  and  C_13 
REMARK   12  A    between atoms: C_12  and  C_14 
REMARK   13  A    between atoms: C_13  and  C_15 
REMARK   14  A    between atoms: C_14  and  C_16 
REMARK   15  A    between atoms: C_15  and  C_17 
REMARK   16  A    between atoms: C_16  and  C_18 
REMARK   17  A    between atoms: C_17  and  C_19 
REMARK   18  A    between atoms: C_18  and  C_20 
REMARK   19  A    between atoms: C_20  and  C_22 
ROOT
HETATM    1  O   UNL     1     -34.078  -8.783  -5.419  1.00  0.00    -0.776 OA
HETATM    2  H   UNL     1     -33.603  -8.335  -4.706  1.00  0.00     0.167 HD
ENDROOT
BRANCH   1   3
HETATM    3  C   UNL     1     -35.149  -8.220  -6.018  1.00  0.00     0.139 C 
HETATM    4  O   UNL     1     -36.273  -8.611  -5.742  1.00  0.00    -0.650 OA
BRANCH   3   5
HETATM    5  C   UNL     1     -34.965  -7.142  -7.053  1.00  0.00     0.110 C 
BRANCH   5   6
HETATM    6  C   UNL     1     -35.194  -7.626  -8.496  1.00  0.00     0.010 C 
BRANCH   6   7
HETATM    7  C   UNL     1     -36.613  -7.412  -9.062  1.00  0.00     0.001 C 
BRANCH   7   8
HETATM    8  C   UNL     1     -37.456  -6.355  -8.319  1.00  0.00     0.000 C 
BRANCH   8   9
HETATM    9  C   UNL     1     -37.714  -5.055  -9.108  1.00  0.00     0.000 C 
BRANCH   9  10
HETATM   10  C   UNL     1     -36.913  -4.916 -10.417  1.00  0.00     0.000 C 
BRANCH  10  11
HETATM   11  C   UNL     1     -37.733  -4.452 -11.637  1.00  0.00     0.000 C 
BRANCH  11  12
HETATM   12  C   UNL     1     -37.424  -5.196 -12.952  1.00  0.00     0.000 C 
BRANCH  12  13
HETATM   13  C   UNL     1     -37.659  -6.719 -12.911  1.00  0.00     0.000 C 
BRANCH  13  14
HETATM   14  C   UNL     1     -36.400  -7.579 -13.140  1.00  0.00     0.000 C 
BRANCH  14  15
HETATM   15  C   UNL     1     -35.588  -7.225 -14.402  1.00  0.00     0.000 C 
BRANCH  15  16
HETATM   16  C   UNL     1     -36.364  -7.338 -15.730  1.00  0.00     0.000 C 
BRANCH  16  17
HETATM   17  C   UNL     1     -36.332  -6.073 -16.613  1.00  0.00     0.000 C 
BRANCH  17  18
HETATM   18  C   UNL     1     -37.656  -5.745 -17.332  1.00  0.00     0.000 C 
BRANCH  18  19
HETATM   19  C   UNL     1     -37.544  -5.572 -18.859  1.00  0.00     0.000 C 
BRANCH  19  20
HETATM   20  C   UNL     1     -37.094  -6.830 -19.628  1.00  0.00     0.000 C 
BRANCH  20  21
HETATM   21  C   UNL     1     -36.040  -6.582 -20.726  1.00  0.00    -0.000 C 
BRANCH  21  22
HETATM   22  C   UNL     1     -34.651  -7.186 -20.449  1.00  0.00    -0.005 C 
HETATM   23  C   UNL     1     -34.626  -8.108 -19.231  1.00  0.00     0.005 C 
ENDBRANCH  21  22
ENDBRANCH  20  21
ENDBRANCH  19  20
ENDBRANCH  18  19
ENDBRANCH  17  18
ENDBRANCH  16  17
ENDBRANCH  15  16
ENDBRANCH  14  15
ENDBRANCH  13  14
ENDBRANCH  12  13
ENDBRANCH  11  12
ENDBRANCH  10  11
ENDBRANCH   9  10
ENDBRANCH   8   9
ENDBRANCH   7   8
ENDBRANCH   6   7
ENDBRANCH   5   6
ENDBRANCH   3   5
ENDBRANCH   1   3
TORSDOF 19
ENDMDL
MODEL 11
REMARK VINA RESULT:      -4.8     33.812     36.310
REMARK  19 active torsions:
REMARK  status: ('A' for Active; 'I' for Inactive)
REMARK    1  A    between atoms: O_1  and  C_22 
REMARK    2  A    between atoms: C_3  and  C_4 
REMARK    3  A    between atoms: C_3  and  C_5 
REMARK    4  A    between atoms: C_4  and  C_6 
REMARK    5  A    between atoms: C_5  and  C_7 
REMARK    6  A    between atoms: C_6  and  C_8 
REMARK    7  A    between atoms: C_7  and  C_9 
REMARK    8  A    between atoms: C_8  and  C_10 
REMARK    9  A    between atoms: C_9  and  C_11 
REMARK   10  A    between atoms: C_10  and  C_12 
REMARK   11  A    between atoms: C_11  and  C_13 
REMARK   12  A    between atoms: C_12  and  C_14 
REMARK   13  A    between atoms: C_13  and  C_15 
REMARK   14  A    between atoms: C_14  and  C_16 
REMARK   15  A    between atoms: C_15  and  C_17 
REMARK   16  A    between atoms: C_16  and  C_18 
REMARK   17  A    between atoms: C_17  and  C_19 
REMARK   18  A    between atoms: C_18  and  C_20 
REMARK   19  A    between atoms: C_20  and  C_22 
ROOT
HETATM    1  O   UNL     1     -34.280  -9.363 -12.082  1.00  0.00    -0.776 OA
HETATM    2  H   UNL     1     -33.430  -9.808 -11.958  1.00  0.00     0.167 HD
ENDROOT
BRANCH   1   3
HETATM    3  C   UNL     1     -35.211  -9.844 -12.932  1.00  0.00     0.139 C 
HETATM    4  O   UNL     1     -35.979 -10.719 -12.559  1.00  0.00    -0.650 OA
BRANCH   3   5
HETATM    5  C   UNL     1     -35.286  -9.338 -14.349  1.00  0.00     0.110 C 
BRANCH   5   6
HETATM    6  C   UNL     1     -35.728  -7.867 -14.456  1.00  0.00     0.010 C 
BRANCH   6   7
HETATM    7  C   UNL     1     -36.898  -7.447 -13.543  1.00  0.00     0.001 C 
BRANCH   7   8
HETATM    8  C   UNL     1     -36.561  -6.342 -12.521  1.00  0.00     0.000 C 
BRANCH   8   9
HETATM    9  C   UNL     1     -37.436  -5.075 -12.617  1.00  0.00     0.000 C 
BRANCH   9  10
HETATM   10  C   UNL     1     -37.580  -4.281 -11.305  1.00  0.00     0.000 C 
BRANCH  10  11
HETATM   11  C   UNL     1     -38.485  -4.936 -10.242  1.00  0.00     0.000 C 
BRANCH  11  12
HETATM   12  C   UNL     1     -37.740  -5.709  -9.136  1.00  0.00     0.000 C 
BRANCH  12  13
HETATM   13  C   UNL     1     -38.048  -7.218  -9.074  1.00  0.00     0.000 C 
BRANCH  13  14
HETATM   14  C   UNL     1     -36.835  -8.142  -9.305  1.00  0.00     0.000 C 
BRANCH  14  15
HETATM   15  C   UNL     1     -35.459  -7.467  -9.136  1.00  0.00     0.000 C 
BRANCH  15  16
HETATM   16  C   UNL     1     -34.632  -7.962  -7.932  1.00  0.00     0.000 C 
BRANCH  16  17
HETATM   17  C   UNL     1     -34.641  -7.026  -6.706  1.00  0.00     0.000 C 
BRANCH  17  18
HETATM   18  C   UNL     1     -34.711  -7.740  -5.341  1.00  0.00     0.000 C 
BRANCH  18  19
HETATM   19  C   UNL     1     -35.999  -7.479  -4.534  1.00  0.00     0.000 C 
BRANCH  19  20
HETATM   20  C   UNL     1     -37.284  -7.359  -5.376  1.00  0.00     0.000 C 
BRANCH  20  21
HETATM   21  C   UNL     1     -38.302  -6.316  -4.869  1.00  0.00    -0.000 C 
BRANCH  21  22
HETATM   22  C   UNL     1     -37.746  -4.893  -4.687  1.00  0.00    -0.005 C 
HETATM   23  C   UNL     1     -37.191  -4.293  -5.978  1.00  0.00     0.005 C 
ENDBRANCH  21  22
ENDBRANCH  20  21
ENDBRANCH  19  20
ENDBRANCH  18  19
ENDBRANCH  17  18
ENDBRANCH  16  17
ENDBRANCH  15  16
ENDBRANCH  14  15
ENDBRANCH  13  14
ENDBRANCH  12  13
ENDBRANCH  11  12
ENDBRANCH  10  11
ENDBRANCH   9  10
ENDBRANCH   8   9
ENDBRANCH   7   8
ENDBRANCH   6   7
ENDBRANCH   5   6
ENDBRANCH   3   5
ENDBRANCH   1   3
TORSDOF 19
ENDMDL
MODEL 12
REMARK VINA RESULT:      -4.8     34.535     35.884
REMARK  19 active torsions:
REMARK  status: ('A' for Active; 'I' for Inactive)
REMARK    1  A    between atoms: O_1  and  C_22 
REMARK    2  A    between atoms: C_3  and  C_4 
REMARK    3  A    between atoms: C_3  and  C_5 
REMARK    4  A    between atoms: C_4  and  C_6 
REMARK    5  A    between atoms: C_5  and  C_7 
REMARK    6  A    between atoms: C_6  and  C_8 
REMARK    7  A    between atoms: C_7  and  C_9 
REMARK    8  A    between atoms: C_8  and  C_10 
REMARK    9  A    between atoms: C_9  and  C_11 
REMARK   10  A    between atoms: C_10  and  C_12 
REMARK   11  A    between atoms: C_11  and  C_13 
REMARK   12  A    between atoms: C_12  and  C_14 
REMARK   13  A    between atoms: C_13  and  C_15 
REMARK   14  A    between atoms: C_14  and  C_16 
REMARK   15  A    between atoms: C_15  and  C_17 
REMARK   16  A    between atoms: C_16  and  C_18 
REMARK   17  A    between atoms: C_17  and  C_19 
REMARK   18  A    between atoms: C_18  and  C_20 
REMARK   19  A    between atoms: C_20  and  C_22 
ROOT
HETATM    1  O   UNL     1     -33.656  -7.906 -14.027  1.00  0.00    -0.776 OA
HETATM    2  H   UNL     1     -34.057  -7.613 -14.858  1.00  0.00     0.167 HD
ENDROOT
BRANCH   1   3
HETATM    3  C   UNL     1     -34.107  -8.996 -13.372  1.00  0.00     0.139 C 
HETATM    4  O   UNL     1     -33.867 -10.111 -13.813  1.00  0.00    -0.650 OA
BRANCH   3   5
HETATM    5  C   UNL     1     -34.937  -8.849 -12.124  1.00  0.00     0.110 C 
BRANCH   5   6
HETATM    6  C   UNL     1     -34.569  -7.614 -11.281  1.00  0.00     0.010 C 
BRANCH   6   7
HETATM    7  C   UNL     1     -35.755  -6.810 -10.711  1.00  0.00     0.001 C 
BRANCH   7   8
HETATM    8  C   UNL     1     -36.190  -5.600 -11.563  1.00  0.00     0.000 C 
BRANCH   8   9
HETATM    9  C   UNL     1     -37.017  -4.537 -10.812  1.00  0.00     0.000 C 
BRANCH   9  10
HETATM   10  C   UNL     1     -38.010  -5.095  -9.775  1.00  0.00     0.000 C 
BRANCH  10  11
HETATM   11  C   UNL     1     -37.611  -4.872  -8.303  1.00  0.00     0.000 C 
BRANCH  11  12
HETATM   12  C   UNL     1     -37.960  -6.033  -7.349  1.00  0.00     0.000 C 
BRANCH  12  13
HETATM   13  C   UNL     1     -37.190  -7.343  -7.606  1.00  0.00     0.000 C 
BRANCH  13  14
HETATM   14  C   UNL     1     -38.024  -8.477  -8.235  1.00  0.00     0.000 C 
BRANCH  14  15
HETATM   15  C   UNL     1     -39.526  -8.169  -8.399  1.00  0.00     0.000 C 
BRANCH  15  16
HETATM   16  C   UNL     1     -40.017  -8.071  -9.857  1.00  0.00     0.000 C 
BRANCH  16  17
HETATM   17  C   UNL     1     -39.015  -8.570 -10.918  1.00  0.00     0.000 C 
BRANCH  17  18
HETATM   18  C   UNL     1     -39.034  -7.795 -12.250  1.00  0.00     0.000 C 
BRANCH  18  19
HETATM   19  C   UNL     1     -38.328  -8.500 -13.425  1.00  0.00     0.000 C 
BRANCH  19  20
HETATM   20  C   UNL     1     -37.654  -7.559 -14.442  1.00  0.00     0.000 C 
BRANCH  20  21
HETATM   21  C   UNL     1     -38.519  -6.367 -14.902  1.00  0.00    -0.000 C 
BRANCH  21  22
HETATM   22  C   UNL     1     -37.920  -4.977 -14.626  1.00  0.00    -0.005 C 
HETATM   23  C   UNL     1     -37.302  -4.329 -15.864  1.00  0.00     0.005 C 
ENDBRANCH  21  22
ENDBRANCH  20  21
ENDBRANCH  19  20
ENDBRANCH  18  19
ENDBRANCH  17  18
ENDBRANCH  16  17
ENDBRANCH  15  16
ENDBRANCH  14  15
ENDBRANCH  13  14
ENDBRANCH  12  13
ENDBRANCH  11  12
ENDBRANCH  10  11
ENDBRANCH   9  10
ENDBRANCH   8   9
ENDBRANCH   7   8
ENDBRANCH   6   7
ENDBRANCH   5   6
ENDBRANCH   3   5
ENDBRANCH   1   3
TORSDOF 19
ENDMDL
MODEL 13
REMARK VINA RESULT:      -4.8     34.281     36.793
REMARK  19 active torsions:
REMARK  status: ('A' for Active; 'I' for Inactive)
REMARK    1  A    between atoms: O_1  and  C_22 
REMARK    2  A    between atoms: C_3  and  C_4 
REMARK    3  A    between atoms: C_3  and  C_5 
REMARK    4  A    between atoms: C_4  and  C_6 
REMARK    5  A    between atoms: C_5  and  C_7 
REMARK    6  A    between atoms: C_6  and  C_8 
REMARK    7  A    between atoms: C_7  and  C_9 
REMARK    8  A    between atoms: C_8  and  C_10 
REMARK    9  A    between atoms: C_9  and  C_11 
REMARK   10  A    between atoms: C_10  and  C_12 
REMARK   11  A    between atoms: C_11  and  C_13 
REMARK   12  A    between atoms: C_12  and  C_14 
REMARK   13  A    between atoms: C_13  and  C_15 
REMARK   14  A    between atoms: C_14  and  C_16 
REMARK   15  A    between atoms: C_15  and  C_17 
REMARK   16  A    between atoms: C_16  and  C_18 
REMARK   17  A    between atoms: C_17  and  C_19 
REMARK   18  A    between atoms: C_18  and  C_20 
REMARK   19  A    between atoms: C_20  and  C_22 
ROOT
HETATM    1  O   UNL     1     -33.751  -8.737 -18.700  1.00  0.00    -0.776 OA
HETATM    2  H   UNL     1     -32.824  -8.511 -18.538  1.00  0.00     0.167 HD
ENDROOT
BRANCH   1   3
HETATM    3  C   UNL     1     -34.322  -8.548 -19.908  1.00  0.00     0.139 C 
HETATM    4  O   UNL     1     -34.689  -9.514 -20.563  1.00  0.00    -0.650 OA
BRANCH   3   5
HETATM    5  C   UNL     1     -34.476  -7.161 -20.472  1.00  0.00     0.110 C 
BRANCH   5   6
HETATM    6  C   UNL     1     -35.581  -7.047 -21.538  1.00  0.00     0.010 C 
BRANCH   6   7
HETATM    7  C   UNL     1     -36.881  -6.349 -21.089  1.00  0.00     0.001 C 
BRANCH   7   8
HETATM    8  C   UNL     1     -37.840  -7.229 -20.262  1.00  0.00     0.000 C 
BRANCH   8   9
HETATM    9  C   UNL     1     -38.482  -6.531 -19.045  1.00  0.00     0.000 C 
BRANCH   9  10
HETATM   10  C   UNL     1     -37.539  -6.315 -17.845  1.00  0.00     0.000 C 
BRANCH  10  11
HETATM   11  C   UNL     1     -37.476  -4.867 -17.318  1.00  0.00     0.000 C 
BRANCH  11  12
HETATM   12  C   UNL     1     -36.820  -4.705 -15.932  1.00  0.00     0.000 C 
BRANCH  12  13
HETATM   13  C   UNL     1     -37.773  -4.886 -14.734  1.00  0.00     0.000 C 
BRANCH  13  14
HETATM   14  C   UNL     1     -37.260  -5.831 -13.629  1.00  0.00     0.000 C 
BRANCH  14  15
HETATM   15  C   UNL     1     -37.954  -5.673 -12.262  1.00  0.00     0.000 C 
BRANCH  15  16
HETATM   16  C   UNL     1     -37.270  -4.688 -11.292  1.00  0.00     0.000 C 
BRANCH  16  17
HETATM   17  C   UNL     1     -37.453  -5.014  -9.795  1.00  0.00     0.000 C 
BRANCH  17  18
HETATM   18  C   UNL     1     -37.735  -6.496  -9.480  1.00  0.00     0.000 C 
BRANCH  18  19
HETATM   19  C   UNL     1     -36.735  -7.159  -8.511  1.00  0.00     0.000 C 
BRANCH  19  20
HETATM   20  C   UNL     1     -37.084  -7.018  -7.016  1.00  0.00     0.000 C 
BRANCH  20  21
HETATM   21  C   UNL     1     -36.195  -6.033  -6.229  1.00  0.00    -0.000 C 
BRANCH  21  22
HETATM   22  C   UNL     1     -36.950  -4.898  -5.514  1.00  0.00    -0.005 C 
HETATM   23  C   UNL     1     -37.925  -4.154  -6.425  1.00  0.00     0.005 C 
ENDBRANCH  21  22
ENDBRANCH  20  21
ENDBRANCH  19  20
ENDBRANCH  18  19
ENDBRANCH  17  18
ENDBRANCH  16  17
ENDBRANCH  15  16
ENDBRANCH  14  15
ENDBRANCH  13  14
ENDBRANCH  12  13
ENDBRANCH  11  12
ENDBRANCH  10  11
ENDBRANCH   9  10
ENDBRANCH   8   9
ENDBRANCH   7   8
ENDBRANCH   6   7
ENDBRANCH   5   6
ENDBRANCH   3   5
ENDBRANCH   1   3
TORSDOF 19
ENDMDL
MODEL 14
REMARK VINA RESULT:      -4.7     34.337     36.595
REMARK  19 active torsions:
REMARK  status: ('A' for Active; 'I' for Inactive)
REMARK    1  A    between atoms: O_1  and  C_22 
REMARK    2  A    between atoms: C_3  and  C_4 
REMARK    3  A    between atoms: C_3  and  C_5 
REMARK    4  A    between atoms: C_4  and  C_6 
REMARK    5  A    between atoms: C_5  and  C_7 
REMARK    6  A    between atoms: C_6  and  C_8 
REMARK    7  A    between atoms: C_7  and  C_9 
REMARK    8  A    between atoms: C_8  and  C_10 
REMARK    9  A    between atoms: C_9  and  C_11 
REMARK   10  A    between atoms: C_10  and  C_12 
REMARK   11  A    between atoms: C_11  and  C_13 
REMARK   12  A    between atoms: C_12  and  C_14 
REMARK   13  A    between atoms: C_13  and  C_15 
REMARK   14  A    between atoms: C_14  and  C_16 
REMARK   15  A    between atoms: C_15  and  C_17 
REMARK   16  A    between atoms: C_16  and  C_18 
REMARK   17  A    between atoms: C_17  and  C_19 
REMARK   18  A    between atoms: C_18  and  C_20 
REMARK   19  A    between atoms: C_20  and  C_22 
ROOT
HETATM    1  O   UNL     1     -35.402 -10.161 -16.515  1.00  0.00    -0.776 OA
HETATM    2  H   UNL     1     -34.611 -10.412 -16.018  1.00  0.00     0.167 HD
ENDROOT
BRANCH   1   3
HETATM    3  C   UNL     1     -35.381  -9.148 -17.408  1.00  0.00     0.139 C 
HETATM    4  O   UNL     1     -34.394  -8.432 -17.490  1.00  0.00    -0.650 OA
BRANCH   3   5
HETATM    5  C   UNL     1     -36.581  -8.870 -18.274  1.00  0.00     0.110 C 
BRANCH   5   6
HETATM    6  C   UNL     1     -37.733  -8.172 -17.528  1.00  0.00     0.010 C 
BRANCH   6   7
HETATM    7  C   UNL     1     -38.209  -6.833 -18.126  1.00  0.00     0.001 C 
BRANCH   7   8
HETATM    8  C   UNL     1     -37.223  -5.658 -17.958  1.00  0.00     0.000 C 
BRANCH   8   9
HETATM    9  C   UNL     1     -37.721  -4.512 -17.055  1.00  0.00     0.000 C 
BRANCH   9  10
HETATM   10  C   UNL     1     -37.220  -4.565 -15.598  1.00  0.00     0.000 C 
BRANCH  10  11
HETATM   11  C   UNL     1     -38.165  -5.276 -14.608  1.00  0.00     0.000 C 
BRANCH  11  12
HETATM   12  C   UNL     1     -37.608  -6.574 -13.992  1.00  0.00     0.000 C 
BRANCH  12  13
HETATM   13  C   UNL     1     -36.176  -6.942 -14.429  1.00  0.00     0.000 C 
BRANCH  13  14
HETATM   14  C   UNL     1     -35.344  -7.695 -13.372  1.00  0.00     0.000 C 
BRANCH  14  15
HETATM   15  C   UNL     1     -36.082  -7.994 -12.052  1.00  0.00     0.000 C 
BRANCH  15  16
HETATM   16  C   UNL     1     -35.646  -7.133 -10.850  1.00  0.00     0.000 C 
BRANCH  16  17
HETATM   17  C   UNL     1     -36.140  -5.671 -10.882  1.00  0.00     0.000 C 
BRANCH  17  18
HETATM   18  C   UNL     1     -37.424  -5.398 -10.073  1.00  0.00     0.000 C 
BRANCH  18  19
HETATM   19  C   UNL     1     -37.339  -5.752  -8.575  1.00  0.00     0.000 C 
BRANCH  19  20
HETATM   20  C   UNL     1     -37.745  -4.619  -7.612  1.00  0.00     0.000 C 
BRANCH  20  21
HETATM   21  C   UNL     1     -37.294  -4.813  -6.150  1.00  0.00    -0.000 C 
BRANCH  21  22
HETATM   22  C   UNL     1     -38.217  -5.696  -5.291  1.00  0.00    -0.005 C 
HETATM   23  C   UNL     1     -37.476  -6.446  -4.185  1.00  0.00     0.005 C 
ENDBRANCH  21  22
ENDBRANCH  20  21
ENDBRANCH  19  20
ENDBRANCH  18  19
ENDBRANCH  17  18
ENDBRANCH  16  17
ENDBRANCH  15  16
ENDBRANCH  14  15
ENDBRANCH  13  14
ENDBRANCH  12  13
ENDBRANCH  11  12
ENDBRANCH  10  11
ENDBRANCH   9  10
ENDBRANCH   8   9
ENDBRANCH   7   8
ENDBRANCH   6   7
ENDBRANCH   5   6
ENDBRANCH   3   5
ENDBRANCH   1   3
TORSDOF 19
ENDMDL
MODEL 15
REMARK VINA RESULT:      -4.7     33.940     35.957
REMARK  19 active torsions:
REMARK  status: ('A' for Active; 'I' for Inactive)
REMARK    1  A    between atoms: O_1  and  C_22 
REMARK    2  A    between atoms: C_3  and  C_4 
REMARK    3  A    between atoms: C_3  and  C_5 
REMARK    4  A    between atoms: C_4  and  C_6 
REMARK    5  A    between atoms: C_5  and  C_7 
REMARK    6  A    between atoms: C_6  and  C_8 
REMARK    7  A    between atoms: C_7  and  C_9 
REMARK    8  A    between atoms: C_8  and  C_10 
REMARK    9  A    between atoms: C_9  and  C_11 
REMARK   10  A    between atoms: C_10  and  C_12 
REMARK   11  A    between atoms: C_11  and  C_13 
REMARK   12  A    between atoms: C_12  and  C_14 
REMARK   13  A    between atoms: C_13  and  C_15 
REMARK   14  A    between atoms: C_14  and  C_16 
REMARK   15  A    between atoms: C_15  and  C_17 
REMARK   16  A    between atoms: C_16  and  C_18 
REMARK   17  A    between atoms: C_17  and  C_19 
REMARK   18  A    between atoms: C_18  and  C_20 
REMARK   19  A    between atoms: C_20  and  C_22 
ROOT
HETATM    1  O   UNL     1     -33.761  -7.922 -13.373  1.00  0.00    -0.776 OA
HETATM    2  H   UNL     1     -32.856  -7.926 -13.033  1.00  0.00     0.167 HD
ENDROOT
BRANCH   1   3
HETATM    3  C   UNL     1     -34.073  -8.492 -14.557  1.00  0.00     0.139 C 
HETATM    4  O   UNL     1     -33.978  -9.704 -14.689  1.00  0.00    -0.650 OA
BRANCH   3   5
HETATM    5  C   UNL     1     -34.498  -7.643 -15.725  1.00  0.00     0.110 C 
BRANCH   5   6
HETATM    6  C   UNL     1     -35.000  -8.459 -16.930  1.00  0.00     0.010 C 
BRANCH   6   7
HETATM    7  C   UNL     1     -35.108  -7.693 -18.265  1.00  0.00     0.001 C 
BRANCH   7   8
HETATM    8  C   UNL     1     -36.548  -7.421 -18.745  1.00  0.00     0.000 C 
BRANCH   8   9
HETATM    9  C   UNL     1     -37.126  -6.052 -18.334  1.00  0.00     0.000 C 
BRANCH   9  10
HETATM   10  C   UNL     1     -37.843  -6.030 -16.969  1.00  0.00     0.000 C 
BRANCH  10  11
HETATM   11  C   UNL     1     -37.251  -5.050 -15.937  1.00  0.00     0.000 C 
BRANCH  11  12
HETATM   12  C   UNL     1     -38.137  -4.786 -14.703  1.00  0.00     0.000 C 
BRANCH  12  13
HETATM   13  C   UNL     1     -37.545  -5.259 -13.361  1.00  0.00     0.000 C 
BRANCH  13  14
HETATM   14  C   UNL     1     -37.076  -6.728 -13.336  1.00  0.00     0.000 C 
BRANCH  14  15
HETATM   15  C   UNL     1     -38.173  -7.768 -13.641  1.00  0.00     0.000 C 
BRANCH  15  16
HETATM   16  C   UNL     1     -39.184  -8.005 -12.500  1.00  0.00     0.000 C 
BRANCH  16  17
HETATM   17  C   UNL     1     -38.584  -7.965 -11.079  1.00  0.00     0.000 C 
BRANCH  17  18
HETATM   18  C   UNL     1     -39.151  -6.863 -10.162  1.00  0.00     0.000 C 
BRANCH  18  19
HETATM   19  C   UNL     1     -38.093  -5.965  -9.491  1.00  0.00     0.000 C 
BRANCH  19  20
HETATM   20  C   UNL     1     -36.731  -6.640  -9.234  1.00  0.00     0.000 C 
BRANCH  20  21
HETATM   21  C   UNL     1     -36.367  -6.828  -7.747  1.00  0.00    -0.000 C 
BRANCH  21  22
HETATM   22  C   UNL     1     -35.013  -7.511  -7.485  1.00  0.00    -0.005 C 
HETATM   23  C   UNL     1     -34.580  -7.451  -6.021  1.00  0.00     0.005 C 
ENDBRANCH  21  22
ENDBRANCH  20  21
ENDBRANCH  19  20
ENDBRANCH  18  19
ENDBRANCH  17  18
ENDBRANCH  16  17
ENDBRANCH  15  16
ENDBRANCH  14  15
ENDBRANCH  13  14
ENDBRANCH  12  13
ENDBRANCH  11  12
ENDBRANCH  10  11
ENDBRANCH   9  10
ENDBRANCH   8   9
ENDBRANCH   7   8
ENDBRANCH   6   7
ENDBRANCH   5   6
ENDBRANCH   3   5
ENDBRANCH   1   3
TORSDOF 19
ENDMDL
MODEL 16
REMARK VINA RESULT:      -4.7     33.902     35.924
REMARK  19 active torsions:
REMARK  status: ('A' for Active; 'I' for Inactive)
REMARK    1  A    between atoms: O_1  and  C_22 
REMARK    2  A    between atoms: C_3  and  C_4 
REMARK    3  A    between atoms: C_3  and  C_5 
REMARK    4  A    between atoms: C_4  and  C_6 
REMARK    5  A    between atoms: C_5  and  C_7 
REMARK    6  A    between atoms: C_6  and  C_8 
REMARK    7  A    between atoms: C_7  and  C_9 
REMARK    8  A    between atoms: C_8  and  C_10 
REMARK    9  A    between atoms: C_9  and  C_11 
REMARK   10  A    between atoms: C_10  and  C_12 
REMARK   11  A    between atoms: C_11  and  C_13 
REMARK   12  A    between atoms: C_12  and  C_14 
REMARK   13  A    between atoms: C_13  and  C_15 
REMARK   14  A    between atoms: C_14  and  C_16 
REMARK   15  A    between atoms: C_15  and  C_17 
REMARK   16  A    between atoms: C_16  and  C_18 
REMARK   17  A    between atoms: C_17  and  C_19 
REMARK   18  A    between atoms: C_18  and  C_20 
REMARK   19  A    between atoms: C_20  and  C_22 
ROOT
HETATM    1  O   UNL     1     -37.694  -4.066 -19.354  1.00  0.00    -0.776 OA
HETATM    2  H   UNL     1     -36.994  -3.580 -18.896  1.00  0.00     0.167 HD
ENDROOT
BRANCH   1   3
HETATM    3  C   UNL     1     -37.484  -4.640 -20.557  1.00  0.00     0.139 C 
HETATM    4  O   UNL     1     -37.633  -3.982 -21.577  1.00  0.00    -0.650 OA
BRANCH   3   5
HETATM    5  C   UNL     1     -37.107  -6.094 -20.654  1.00  0.00     0.110 C 
BRANCH   5   6
HETATM    6  C   UNL     1     -35.954  -6.369 -21.637  1.00  0.00     0.010 C 
BRANCH   6   7
HETATM    7  C   UNL     1     -35.602  -7.853 -21.865  1.00  0.00     0.001 C 
BRANCH   7   8
HETATM    8  C   UNL     1     -35.696  -8.744 -20.609  1.00  0.00     0.000 C 
BRANCH   8   9
HETATM    9  C   UNL     1     -34.441  -8.743 -19.713  1.00  0.00     0.000 C 
BRANCH   9  10
HETATM   10  C   UNL     1     -34.529  -7.838 -18.469  1.00  0.00     0.000 C 
BRANCH  10  11
HETATM   11  C   UNL     1     -34.881  -8.566 -17.156  1.00  0.00     0.000 C 
BRANCH  11  12
HETATM   12  C   UNL     1     -35.960  -7.876 -16.297  1.00  0.00     0.000 C 
BRANCH  12  13
HETATM   13  C   UNL     1     -36.569  -6.602 -16.913  1.00  0.00     0.000 C 
BRANCH  13  14
HETATM   14  C   UNL     1     -36.226  -5.292 -16.176  1.00  0.00     0.000 C 
BRANCH  14  15
HETATM   15  C   UNL     1     -37.438  -4.523 -15.614  1.00  0.00     0.000 C 
BRANCH  15  16
HETATM   16  C   UNL     1     -37.756  -4.798 -14.130  1.00  0.00     0.000 C 
BRANCH  16  17
HETATM   17  C   UNL     1     -38.194  -6.242 -13.814  1.00  0.00     0.000 C 
BRANCH  17  18
HETATM   18  C   UNL     1     -37.389  -6.940 -12.699  1.00  0.00     0.000 C 
BRANCH  18  19
HETATM   19  C   UNL     1     -37.599  -6.363 -11.285  1.00  0.00     0.000 C 
BRANCH  19  20
HETATM   20  C   UNL     1     -36.316  -6.215 -10.443  1.00  0.00     0.000 C 
BRANCH  20  21
HETATM   21  C   UNL     1     -35.056  -6.859 -11.055  1.00  0.00    -0.000 C 
BRANCH  21  22
HETATM   22  C   UNL     1     -34.375  -7.927 -10.180  1.00  0.00    -0.005 C 
HETATM   23  C   UNL     1     -35.028  -9.303 -10.290  1.00  0.00     0.005 C 
ENDBRANCH  21  22
ENDBRANCH  20  21
ENDBRANCH  19  20
ENDBRANCH  18  19
ENDBRANCH  17  18
ENDBRANCH  16  17
ENDBRANCH  15  16
ENDBRANCH  14  15
ENDBRANCH  13  14
ENDBRANCH  12  13
ENDBRANCH  11  12
ENDBRANCH  10  11
ENDBRANCH   9  10
ENDBRANCH   8   9
ENDBRANCH   7   8
ENDBRANCH   6   7
ENDBRANCH   5   6
ENDBRANCH   3   5
ENDBRANCH   1   3
TORSDOF 19
ENDMDL
MODEL 17
REMARK VINA RESULT:      -4.7     34.070     36.146
REMARK  19 active torsions:
REMARK  status: ('A' for Active; 'I' for Inactive)
REMARK    1  A    between atoms: O_1  and  C_22 
REMARK    2  A    between atoms: C_3  and  C_4 
REMARK    3  A    between atoms: C_3  and  C_5 
REMARK    4  A    between atoms: C_4  and  C_6 
REMARK    5  A    between atoms: C_5  and  C_7 
REMARK    6  A    between atoms: C_6  and  C_8 
REMARK    7  A    between atoms: C_7  and  C_9 
REMARK    8  A    between atoms: C_8  and  C_10 
REMARK    9  A    between atoms: C_9  and  C_11 
REMARK   10  A    between atoms: C_10  and  C_12 
REMARK   11  A    between atoms: C_11  and  C_13 
REMARK   12  A    between atoms: C_12  and  C_14 
REMARK   13  A    between atoms: C_13  and  C_15 
REMARK   14  A    between atoms: C_14  and  C_16 
REMARK   15  A    between atoms: C_15  and  C_17 
REMARK   16  A    between atoms: C_16  and  C_18 
REMARK   17  A    between atoms: C_17  and  C_19 
REMARK   18  A    between atoms: C_18  and  C_20 
REMARK   19  A    between atoms: C_20  and  C_22 
ROOT
HETATM    1  O   UNL     1     -37.631  -3.468 -20.989  1.00  0.00    -0.776 OA
HETATM    2  H   UNL     1     -37.387  -3.496 -21.924  1.00  0.00     0.167 HD
ENDROOT
BRANCH   1   3
HETATM    3  C   UNL     1     -37.433  -4.527 -20.175  1.00  0.00     0.139 C 
HETATM    4  O   UNL     1     -37.467  -4.374 -18.963  1.00  0.00    -0.650 OA
BRANCH   3   5
HETATM    5  C   UNL     1     -37.130  -5.885 -20.750  1.00  0.00     0.110 C 
BRANCH   5   6
HETATM    6  C   UNL     1     -35.898  -6.561 -20.120  1.00  0.00     0.010 C 
BRANCH   6   7
HETATM    7  C   UNL     1     -35.767  -8.079 -20.359  1.00  0.00     0.001 C 
BRANCH   7   8
HETATM    8  C   UNL     1     -36.597  -8.962 -19.405  1.00  0.00     0.000 C 
BRANCH   8   9
HETATM    9  C   UNL     1     -36.886  -8.338 -18.024  1.00  0.00     0.000 C 
BRANCH   9  10
HETATM   10  C   UNL     1     -35.747  -8.473 -16.995  1.00  0.00     0.000 C 
BRANCH  10  11
HETATM   11  C   UNL     1     -35.211  -7.140 -16.437  1.00  0.00     0.000 C 
BRANCH  11  12
HETATM   12  C   UNL     1     -36.219  -6.331 -15.595  1.00  0.00     0.000 C 
BRANCH  12  13
HETATM   13  C   UNL     1     -36.309  -6.743 -14.112  1.00  0.00     0.000 C 
BRANCH  13  14
HETATM   14  C   UNL     1     -37.620  -6.349 -13.404  1.00  0.00     0.000 C 
BRANCH  14  15
HETATM   15  C   UNL     1     -37.712  -4.871 -12.977  1.00  0.00     0.000 C 
BRANCH  15  16
HETATM   16  C   UNL     1     -37.199  -4.569 -11.554  1.00  0.00     0.000 C 
BRANCH  16  17
HETATM   17  C   UNL     1     -38.156  -4.976 -10.415  1.00  0.00     0.000 C 
BRANCH  17  18
HETATM   18  C   UNL     1     -37.647  -6.117  -9.511  1.00  0.00     0.000 C 
BRANCH  18  19
HETATM   19  C   UNL     1     -36.266  -6.684  -9.892  1.00  0.00     0.000 C 
BRANCH  19  20
HETATM   20  C   UNL     1     -36.262  -8.169 -10.306  1.00  0.00     0.000 C 
BRANCH  20  21
HETATM   21  C   UNL     1     -34.862  -8.803 -10.451  1.00  0.00    -0.000 C 
BRANCH  21  22
HETATM   22  C   UNL     1     -34.360  -9.571  -9.216  1.00  0.00    -0.005 C 
HETATM   23  C   UNL     1     -33.853 -10.974  -9.545  1.00  0.00     0.005 C 
ENDBRANCH  21  22
ENDBRANCH  20  21
ENDBRANCH  19  20
ENDBRANCH  18  19
ENDBRANCH  17  18
ENDBRANCH  16  17
ENDBRANCH  15  16
ENDBRANCH  14  15
ENDBRANCH  13  14
ENDBRANCH  12  13
ENDBRANCH  11  12
ENDBRANCH  10  11
ENDBRANCH   9  10
ENDBRANCH   8   9
ENDBRANCH   7   8
ENDBRANCH   6   7
ENDBRANCH   5   6
ENDBRANCH   3   5
ENDBRANCH   1   3
TORSDOF 19
ENDMDL
MODEL 18
REMARK VINA RESULT:      -4.6     34.825     36.821
REMARK  19 active torsions:
REMARK  status: ('A' for Active; 'I' for Inactive)
REMARK    1  A    between atoms: O_1  and  C_22 
REMARK    2  A    between atoms: C_3  and  C_4 
REMARK    3  A    between atoms: C_3  and  C_5 
REMARK    4  A    between atoms: C_4  and  C_6 
REMARK    5  A    between atoms: C_5  and  C_7 
REMARK    6  A    between atoms: C_6  and  C_8 
REMARK    7  A    between atoms: C_7  and  C_9 
REMARK    8  A    between atoms: C_8  and  C_10 
REMARK    9  A    between atoms: C_9  and  C_11 
REMARK   10  A    between atoms: C_10  and  C_12 
REMARK   11  A    between atoms: C_11  and  C_13 
REMARK   12  A    between atoms: C_12  and  C_14 
REMARK   13  A    between atoms: C_13  and  C_15 
REMARK   14  A    between atoms: C_14  and  C_16 
REMARK   15  A    between atoms: C_15  and  C_17 
REMARK   16  A    between atoms: C_16  and  C_18 
REMARK   17  A    between atoms: C_17  and  C_19 
REMARK   18  A    between atoms: C_18  and  C_20 
REMARK   19  A    between atoms: C_20  and  C_22 
ROOT
HETATM    1  O   UNL     1     -41.384 -10.844  -7.856  1.00  0.00    -0.776 OA
HETATM    2  H   UNL     1     -40.695 -11.458  -8.148  1.00  0.00     0.167 HD
ENDROOT
BRANCH   1   3
HETATM    3  C   UNL     1     -41.138  -9.901  -6.922  1.00  0.00     0.139 C 
HETATM    4  O   UNL     1     -41.991  -9.641  -6.085  1.00  0.00    -0.650 OA
BRANCH   3   5
HETATM    5  C   UNL     1     -39.839  -9.140  -6.927  1.00  0.00     0.110 C 
BRANCH   5   6
HETATM    6  C   UNL     1     -39.798  -7.983  -5.912  1.00  0.00     0.010 C 
BRANCH   6   7
HETATM    7  C   UNL     1     -38.392  -7.491  -5.510  1.00  0.00     0.001 C 
BRANCH   7   8
HETATM    8  C   UNL     1     -38.335  -6.039  -4.993  1.00  0.00     0.000 C 
BRANCH   8   9
HETATM    9  C   UNL     1     -37.260  -5.152  -5.655  1.00  0.00     0.000 C 
BRANCH   9  10
HETATM   10  C   UNL     1     -37.700  -4.456  -6.957  1.00  0.00     0.000 C 
BRANCH  10  11
HETATM   11  C   UNL     1     -37.398  -5.239  -8.251  1.00  0.00     0.000 C 
BRANCH  11  12
HETATM   12  C   UNL     1     -38.046  -4.666  -9.527  1.00  0.00     0.000 C 
BRANCH  12  13
HETATM   13  C   UNL     1     -37.087  -4.480 -10.719  1.00  0.00     0.000 C 
BRANCH  13  14
HETATM   14  C   UNL     1     -37.477  -5.248 -11.998  1.00  0.00     0.000 C 
BRANCH  14  15
HETATM   15  C   UNL     1     -36.802  -6.624 -12.163  1.00  0.00     0.000 C 
BRANCH  15  16
HETATM   16  C   UNL     1     -35.387  -6.734 -11.561  1.00  0.00     0.000 C 
BRANCH  16  17
HETATM   17  C   UNL     1     -35.179  -7.920 -10.596  1.00  0.00     0.000 C 
BRANCH  17  18
HETATM   18  C   UNL     1     -36.451  -8.401  -9.869  1.00  0.00     0.000 C 
BRANCH  18  19
HETATM   19  C   UNL     1     -36.320  -8.525  -8.339  1.00  0.00     0.000 C 
BRANCH  19  20
HETATM   20  C   UNL     1     -34.883  -8.403  -7.794  1.00  0.00     0.000 C 
BRANCH  20  21
HETATM   21  C   UNL     1     -34.671  -7.281  -6.756  1.00  0.00    -0.000 C 
BRANCH  21  22
HETATM   22  C   UNL     1     -34.542  -7.754  -5.297  1.00  0.00    -0.005 C 
HETATM   23  C   UNL     1     -34.812  -9.248  -5.121  1.00  0.00     0.005 C 
ENDBRANCH  21  22
ENDBRANCH  20  21
ENDBRANCH  19  20
ENDBRANCH  18  19
ENDBRANCH  17  18
ENDBRANCH  16  17
ENDBRANCH  15  16
ENDBRANCH  14  15
ENDBRANCH  13  14
ENDBRANCH  12  13
ENDBRANCH  11  12
ENDBRANCH  10  11
ENDBRANCH   9  10
ENDBRANCH   8   9
ENDBRANCH   7   8
ENDBRANCH   6   7
ENDBRANCH   5   6
ENDBRANCH   3   5
ENDBRANCH   1   3
TORSDOF 19
ENDMDL
MODEL 19
REMARK VINA RESULT:      -4.6     34.522     35.397
REMARK  19 active torsions:
REMARK  status: ('A' for Active; 'I' for Inactive)
REMARK    1  A    between atoms: O_1  and  C_22 
REMARK    2  A    between atoms: C_3  and  C_4 
REMARK    3  A    between atoms: C_3  and  C_5 
REMARK    4  A    between atoms: C_4  and  C_6 
REMARK    5  A    between atoms: C_5  and  C_7 
REMARK    6  A    between atoms: C_6  and  C_8 
REMARK    7  A    between atoms: C_7  and  C_9 
REMARK    8  A    between atoms: C_8  and  C_10 
REMARK    9  A    between atoms: C_9  and  C_11 
REMARK   10  A    between atoms: C_10  and  C_12 
REMARK   11  A    between atoms: C_11  and  C_13 
REMARK   12  A    between atoms: C_12  and  C_14 
REMARK   13  A    between atoms: C_13  and  C_15 
REMARK   14  A    between atoms: C_14  and  C_16 
REMARK   15  A    between atoms: C_15  and  C_17 
REMARK   16  A    between atoms: C_16  and  C_18 
REMARK   17  A    between atoms: C_17  and  C_19 
REMARK   18  A    between atoms: C_18  and  C_20 
REMARK   19  A    between atoms: C_20  and  C_22 
ROOT
HETATM    1  O   UNL     1     -25.625  17.950 -16.434  1.00  0.00    -0.776 OA
HETATM    2  H   UNL     1     -25.823  18.791 -16.869  1.00  0.00     0.167 HD
ENDROOT
BRANCH   1   3
HETATM    3  C   UNL     1     -26.558  17.292 -15.713  1.00  0.00     0.139 C 
HETATM    4  O   UNL     1     -26.212  16.440 -14.908  1.00  0.00    -0.650 OA
BRANCH   3   5
HETATM    5  C   UNL     1     -28.022  17.572 -15.922  1.00  0.00     0.110 C 
BRANCH   5   6
HETATM    6  C   UNL     1     -28.340  18.211 -17.287  1.00  0.00     0.010 C 
BRANCH   6   7
HETATM    7  C   UNL     1     -28.314  17.257 -18.499  1.00  0.00     0.001 C 
BRANCH   7   8
HETATM    8  C   UNL     1     -29.642  16.524 -18.778  1.00  0.00     0.000 C 
BRANCH   8   9
HETATM    9  C   UNL     1     -29.505  15.194 -19.547  1.00  0.00     0.000 C 
BRANCH   9  10
HETATM   10  C   UNL     1     -29.555  13.927 -18.673  1.00  0.00     0.000 C 
BRANCH  10  11
HETATM   11  C   UNL     1     -29.357  14.167 -17.163  1.00  0.00     0.000 C 
BRANCH  11  12
HETATM   12  C   UNL     1     -27.997  13.709 -16.601  1.00  0.00     0.000 C 
BRANCH  12  13
HETATM   13  C   UNL     1     -26.913  13.431 -17.661  1.00  0.00     0.000 C 
BRANCH  13  14
HETATM   14  C   UNL     1     -25.932  14.593 -17.912  1.00  0.00     0.000 C 
BRANCH  14  15
HETATM   15  C   UNL     1     -25.572  14.836 -19.391  1.00  0.00     0.000 C 
BRANCH  15  16
HETATM   16  C   UNL     1     -26.058  13.747 -20.369  1.00  0.00     0.000 C 
BRANCH  16  17
HETATM   17  C   UNL     1     -26.847  14.269 -21.587  1.00  0.00     0.000 C 
BRANCH  17  18
HETATM   18  C   UNL     1     -26.295  15.564 -22.216  1.00  0.00     0.000 C 
BRANCH  18  19
HETATM   19  C   UNL     1     -27.190  16.806 -22.044  1.00  0.00     0.000 C 
BRANCH  19  20
HETATM   20  C   UNL     1     -26.438  18.116 -21.734  1.00  0.00     0.000 C 
BRANCH  20  21
HETATM   21  C   UNL     1     -27.337  19.308 -21.343  1.00  0.00    -0.000 C 
BRANCH  21  22
HETATM   22  C   UNL     1     -28.698  19.364 -22.059  1.00  0.00    -0.005 C 
HETATM   23  C   UNL     1     -29.881  19.469 -21.098  1.00  0.00     0.005 C 
ENDBRANCH  21  22
ENDBRANCH  20  21
ENDBRANCH  19  20
ENDBRANCH  18  19
ENDBRANCH  17  18
ENDBRANCH  16  17
ENDBRANCH  15  16
ENDBRANCH  14  15
ENDBRANCH  13  14
ENDBRANCH  12  13
ENDBRANCH  11  12
ENDBRANCH  10  11
ENDBRANCH   9  10
ENDBRANCH   8   9
ENDBRANCH   7   8
ENDBRANCH   6   7
ENDBRANCH   5   6
ENDBRANCH   3   5
ENDBRANCH   1   3
TORSDOF 19
ENDMDL
MODEL 20
REMARK VINA RESULT:      -4.6     34.022     35.731
REMARK  19 active torsions:
REMARK  status: ('A' for Active; 'I' for Inactive)
REMARK    1  A    between atoms: O_1  and  C_22 
REMARK    2  A    between atoms: C_3  and  C_4 
REMARK    3  A    between atoms: C_3  and  C_5 
REMARK    4  A    between atoms: C_4  and  C_6 
REMARK    5  A    between atoms: C_5  and  C_7 
REMARK    6  A    between atoms: C_6  and  C_8 
REMARK    7  A    between atoms: C_7  and  C_9 
REMARK    8  A    between atoms: C_8  and  C_10 
REMARK    9  A    between atoms: C_9  and  C_11 
REMARK   10  A    between atoms: C_10  and  C_12 
REMARK   11  A    between atoms: C_11  and  C_13 
REMARK   12  A    between atoms: C_12  and  C_14 
REMARK   13  A    between atoms: C_13  and  C_15 
REMARK   14  A    between atoms: C_14  and  C_16 
REMARK   15  A    between atoms: C_15  and  C_17 
REMARK   16  A    between atoms: C_16  and  C_18 
REMARK   17  A    between atoms: C_17  and  C_19 
REMARK   18  A    between atoms: C_18  and  C_20 
REMARK   19  A    between atoms: C_20  and  C_22 
ROOT
HETATM    1  O   UNL     1     -33.959 -11.178 -16.705  1.00  0.00    -0.776 OA
HETATM    2  H   UNL     1     -33.816 -12.083 -16.395  1.00  0.00     0.167 HD
ENDROOT
BRANCH   1   3
HETATM    3  C   UNL     1     -33.927 -10.868 -18.018  1.00  0.00     0.139 C 
HETATM    4  O   UNL     1     -32.975 -11.218 -18.701  1.00  0.00    -0.650 OA
BRANCH   3   5
HETATM    5  C   UNL     1     -35.036 -10.061 -18.639  1.00  0.00     0.110 C 
BRANCH   5   6
HETATM    6  C   UNL     1     -34.539  -8.842 -19.438  1.00  0.00     0.010 C 
BRANCH   6   7
HETATM    7  C   UNL     1     -35.530  -8.261 -20.467  1.00  0.00     0.001 C 
BRANCH   7   8
HETATM    8  C   UNL     1     -35.202  -6.835 -20.953  1.00  0.00     0.000 C 
BRANCH   8   9
HETATM    9  C   UNL     1     -36.383  -6.075 -21.591  1.00  0.00     0.000 C 
BRANCH   9  10
HETATM   10  C   UNL     1     -36.924  -4.895 -20.761  1.00  0.00     0.000 C 
BRANCH  10  11
HETATM   11  C   UNL     1     -38.282  -5.146 -20.075  1.00  0.00     0.000 C 
BRANCH  11  12
HETATM   12  C   UNL     1     -38.265  -6.215 -18.964  1.00  0.00     0.000 C 
BRANCH  12  13
HETATM   13  C   UNL     1     -37.391  -5.872 -17.742  1.00  0.00     0.000 C 
BRANCH  13  14
HETATM   14  C   UNL     1     -36.648  -7.069 -17.114  1.00  0.00     0.000 C 
BRANCH  14  15
HETATM   15  C   UNL     1     -35.427  -6.697 -16.249  1.00  0.00     0.000 C 
BRANCH  15  16
HETATM   16  C   UNL     1     -35.010  -7.764 -15.216  1.00  0.00     0.000 C 
BRANCH  16  17
HETATM   17  C   UNL     1     -36.045  -8.036 -14.106  1.00  0.00     0.000 C 
BRANCH  17  18
HETATM   18  C   UNL     1     -36.365  -6.830 -13.201  1.00  0.00     0.000 C 
BRANCH  18  19
HETATM   19  C   UNL     1     -37.867  -6.546 -12.999  1.00  0.00     0.000 C 
BRANCH  19  20
HETATM   20  C   UNL     1     -38.705  -7.758 -12.544  1.00  0.00     0.000 C 
BRANCH  20  21
HETATM   21  C   UNL     1     -39.676  -8.315 -13.605  1.00  0.00    -0.000 C 
BRANCH  21  22
HETATM   22  C   UNL     1     -39.772  -7.492 -14.902  1.00  0.00    -0.005 C 
HETATM   23  C   UNL     1     -39.851  -8.355 -16.160  1.00  0.00     0.005 C 
ENDBRANCH  21  22
ENDBRANCH  20  21
ENDBRANCH  19  20
ENDBRANCH  18  19
ENDBRANCH  17  18
ENDBRANCH  16  17
ENDBRANCH  15  16
ENDBRANCH  14  15
ENDBRANCH  13  14
ENDBRANCH  12  13
ENDBRANCH  11  12
ENDBRANCH  10  11
ENDBRANCH   9  10
ENDBRANCH   8   9
ENDBRANCH   7   8
ENDBRANCH   6   7
ENDBRANCH   5   6
ENDBRANCH   3   5
ENDBRANCH   1   3
TORSDOF 19
ENDMDL
