MODEL 1
REMARK VINA RESULT:      -6.7      0.000      0.000
REMARK  2 active torsions:
REMARK  status: ('A' for Active; 'I' for Inactive)
REMARK    1  A    between atoms: N_3  and  C_15 
REMARK    2  A    between atoms: C_5  and  C_7 
ROOT
HETATM    1  S   UNL     1     -37.813  -4.430 -11.939  1.00  0.00    -0.069 SA
HETATM    2  N   UNL     1     -37.038  -6.842 -11.960  1.00  0.00    -0.344 N 
HETATM    3  C   UNL     1     -37.131  -6.450 -10.648  1.00  0.00     0.052 A 
HETATM    4  C   UNL     1     -37.414  -5.830 -12.815  1.00  0.00     0.087 A 
HETATM    5  C   UNL     1     -37.547  -5.143 -10.455  1.00  0.00     0.034 A 
HETATM    6  C   UNL     1     -36.831  -7.246  -9.529  1.00  0.00     0.031 A 
HETATM    7  C   UNL     1     -37.689  -4.575  -9.192  1.00  0.00     0.028 A 
HETATM    8  C   UNL     1     -36.524  -8.170 -12.324  1.00  0.00     0.157 C 
HETATM    9  C   UNL     1     -37.396  -5.367  -8.066  1.00  0.00    -0.061 A 
HETATM   10  C   UNL     1     -36.967  -6.700  -8.242  1.00  0.00     0.009 A 
HETATM   11  C   UNL     1     -37.532  -4.809  -6.681  1.00  0.00     0.048 C 
ENDROOT
BRANCH   4  12
HETATM   12  C   UNL     1     -37.525  -5.867 -14.308  1.00  0.00    -0.002 A 
HETATM   13  C   UNL     1     -37.735  -7.055 -15.032  1.00  0.00     0.016 A 
HETATM   14  C   UNL     1     -37.855  -7.041 -16.425  1.00  0.00     0.030 A 
HETATM   15  C   UNL     1     -37.779  -5.835 -17.154  1.00  0.00     0.029 A 
HETATM   16  C   UNL     1     -37.591  -4.643 -16.422  1.00  0.00     0.030 A 
HETATM   17  C   UNL     1     -37.476  -4.661 -15.030  1.00  0.00     0.016 A 
BRANCH  15  18
HETATM   18  N   UNL     1     -37.901  -5.819 -18.592  1.00  0.00    -0.390 N 
HETATM   19  C   UNL     1     -37.538  -4.632 -19.355  1.00  0.00     0.149 C 
HETATM   20  C   UNL     1     -38.392  -6.989 -19.309  1.00  0.00     0.149 C 
ENDBRANCH  15  18
ENDBRANCH   4  12
TORSDOF 2
ENDMDL
MODEL 2
REMARK VINA RESULT:      -6.6      1.945      7.771
REMARK  2 active torsions:
REMARK  status: ('A' for Active; 'I' for Inactive)
REMARK    1  A    between atoms: N_3  and  C_15 
REMARK    2  A    between atoms: C_5  and  C_7 
ROOT
HETATM    1  S   UNL     1     -37.959  -5.870 -14.226  1.00  0.00    -0.069 SA
HETATM    2  N   UNL     1     -35.795  -7.065 -13.670  1.00  0.00    -0.344 N 
HETATM    3  C   UNL     1     -35.902  -7.021 -15.037  1.00  0.00     0.052 A 
HETATM    4  C   UNL     1     -36.858  -6.436 -13.061  1.00  0.00     0.087 A 
HETATM    5  C   UNL     1     -37.041  -6.393 -15.516  1.00  0.00     0.034 A 
HETATM    6  C   UNL     1     -34.982  -7.560 -15.952  1.00  0.00     0.031 A 
HETATM    7  C   UNL     1     -37.317  -6.264 -16.874  1.00  0.00     0.028 A 
HETATM    8  C   UNL     1     -34.689  -7.777 -13.015  1.00  0.00     0.157 C 
HETATM    9  C   UNL     1     -36.397  -6.796 -17.797  1.00  0.00    -0.061 A 
HETATM   10  C   UNL     1     -35.233  -7.442 -17.329  1.00  0.00     0.009 A 
HETATM   11  C   UNL     1     -36.642  -6.685 -19.272  1.00  0.00     0.048 C 
ENDROOT
BRANCH   4  12
HETATM   12  C   UNL     1     -37.088  -6.201 -11.600  1.00  0.00    -0.002 A 
HETATM   13  C   UNL     1     -37.270  -4.919 -11.050  1.00  0.00     0.016 A 
HETATM   14  C   UNL     1     -37.503  -4.747  -9.682  1.00  0.00     0.030 A 
HETATM   15  C   UNL     1     -37.575  -5.850  -8.807  1.00  0.00     0.029 A 
HETATM   16  C   UNL     1     -37.414  -7.136  -9.366  1.00  0.00     0.030 A 
HETATM   17  C   UNL     1     -37.185  -7.305 -10.734  1.00  0.00     0.016 A 
BRANCH  15  18
HETATM   18  N   UNL     1     -37.815  -5.673  -7.394  1.00  0.00    -0.390 N 
HETATM   19  C   UNL     1     -38.213  -6.801  -6.562  1.00  0.00     0.149 C 
HETATM   20  C   UNL     1     -37.665  -4.364  -6.774  1.00  0.00     0.149 C 
ENDBRANCH  15  18
ENDBRANCH   4  12
TORSDOF 2
ENDMDL
MODEL 3
REMARK VINA RESULT:      -6.6      1.742      7.731
REMARK  2 active torsions:
REMARK  status: ('A' for Active; 'I' for Inactive)
REMARK    1  A    between atoms: N_3  and  C_15 
REMARK    2  A    between atoms: C_5  and  C_7 
ROOT
HETATM    1  S   UNL     1     -37.676  -4.881 -15.005  1.00  0.00    -0.069 SA
HETATM    2  N   UNL     1     -36.613  -7.159 -15.325  1.00  0.00    -0.344 N 
HETATM    3  C   UNL     1     -36.847  -6.634 -16.571  1.00  0.00     0.052 A 
HETATM    4  C   UNL     1     -36.996  -6.286 -14.332  1.00  0.00     0.087 A 
HETATM    5  C   UNL     1     -37.432  -5.378 -16.578  1.00  0.00     0.034 A 
HETATM    6  C   UNL     1     -36.562  -7.263 -17.796  1.00  0.00     0.031 A 
HETATM    7  C   UNL     1     -37.748  -4.700 -17.752  1.00  0.00     0.028 A 
HETATM    8  C   UNL     1     -36.081  -8.519 -15.159  1.00  0.00     0.157 C 
HETATM    9  C   UNL     1     -37.460  -5.320 -18.982  1.00  0.00    -0.061 A 
HETATM   10  C   UNL     1     -36.868  -6.601 -18.995  1.00  0.00     0.009 A 
HETATM   11  C   UNL     1     -37.777  -4.635 -20.277  1.00  0.00     0.048 C 
ENDROOT
BRANCH   4  12
HETATM   12  C   UNL     1     -36.847  -6.440 -12.849  1.00  0.00    -0.002 A 
HETATM   13  C   UNL     1     -35.726  -7.042 -12.251  1.00  0.00     0.016 A 
HETATM   14  C   UNL     1     -35.617  -7.145 -10.861  1.00  0.00     0.030 A 
HETATM   15  C   UNL     1     -36.622  -6.642 -10.008  1.00  0.00     0.029 A 
HETATM   16  C   UNL     1     -37.735  -6.018 -10.612  1.00  0.00     0.030 A 
HETATM   17  C   UNL     1     -37.838  -5.913 -12.001  1.00  0.00     0.016 A 
BRANCH  15  18
HETATM   18  N   UNL     1     -36.512  -6.749  -8.573  1.00  0.00    -0.390 N 
HETATM   19  C   UNL     1     -37.479  -6.092  -7.703  1.00  0.00     0.149 C 
HETATM   20  C   UNL     1     -35.431  -7.514  -7.966  1.00  0.00     0.149 C 
ENDBRANCH  15  18
ENDBRANCH   4  12
TORSDOF 2
ENDMDL
MODEL 4
REMARK VINA RESULT:      -6.5      0.691      1.209
REMARK  2 active torsions:
REMARK  status: ('A' for Active; 'I' for Inactive)
REMARK    1  A    between atoms: N_3  and  C_15 
REMARK    2  A    between atoms: C_5  and  C_7 
ROOT
HETATM    1  S   UNL     1     -37.747  -4.479 -11.539  1.00  0.00    -0.069 SA
HETATM    2  N   UNL     1     -36.829  -6.840 -11.601  1.00  0.00    -0.344 N 
HETATM    3  C   UNL     1     -37.013  -6.504 -10.284  1.00  0.00     0.052 A 
HETATM    4  C   UNL     1     -37.221  -5.821 -12.440  1.00  0.00     0.087 A 
HETATM    5  C   UNL     1     -37.515  -5.230 -10.068  1.00  0.00     0.034 A 
HETATM    6  C   UNL     1     -36.723  -7.321  -9.178  1.00  0.00     0.031 A 
HETATM    7  C   UNL     1     -37.755  -4.720  -8.796  1.00  0.00     0.028 A 
HETATM    8  C   UNL     1     -36.220  -8.122 -11.982  1.00  0.00     0.157 C 
HETATM    9  C   UNL     1     -37.474  -5.534  -7.683  1.00  0.00    -0.061 A 
HETATM   10  C   UNL     1     -36.958  -6.833  -7.882  1.00  0.00     0.009 A 
HETATM   11  C   UNL     1     -37.713  -5.037  -6.290  1.00  0.00     0.048 C 
ENDROOT
BRANCH   4  12
HETATM   12  C   UNL     1     -37.253  -5.809 -13.938  1.00  0.00    -0.002 A 
HETATM   13  C   UNL     1     -37.758  -4.729 -14.684  1.00  0.00     0.016 A 
HETATM   14  C   UNL     1     -37.748  -4.750 -16.082  1.00  0.00     0.030 A 
HETATM   15  C   UNL     1     -37.222  -5.848 -16.794  1.00  0.00     0.029 A 
HETATM   16  C   UNL     1     -36.696  -6.920 -16.041  1.00  0.00     0.030 A 
HETATM   17  C   UNL     1     -36.703  -6.893 -14.645  1.00  0.00     0.016 A 
BRANCH  15  18
HETATM   18  N   UNL     1     -37.212  -5.871 -18.238  1.00  0.00    -0.390 N 
HETATM   19  C   UNL     1     -37.744  -4.750 -19.001  1.00  0.00     0.149 C 
HETATM   20  C   UNL     1     -36.672  -7.016 -18.958  1.00  0.00     0.149 C 
ENDBRANCH  15  18
ENDBRANCH   4  12
TORSDOF 2
ENDMDL
MODEL 5
REMARK VINA RESULT:      -6.5      2.915      8.742
REMARK  2 active torsions:
REMARK  status: ('A' for Active; 'I' for Inactive)
REMARK    1  A    between atoms: N_3  and  C_15 
REMARK    2  A    between atoms: C_5  and  C_7 
ROOT
HETATM    1  S   UNL     1     -37.970  -6.072 -18.896  1.00  0.00    -0.069 SA
HETATM    2  N   UNL     1     -35.733  -7.106 -18.307  1.00  0.00    -0.344 N 
HETATM    3  C   UNL     1     -35.822  -7.067 -19.676  1.00  0.00     0.052 A 
HETATM    4  C   UNL     1     -36.849  -6.558 -17.715  1.00  0.00     0.087 A 
HETATM    5  C   UNL     1     -36.997  -6.524 -20.172  1.00  0.00     0.034 A 
HETATM    6  C   UNL     1     -34.851  -7.535 -20.578  1.00  0.00     0.031 A 
HETATM    7  C   UNL     1     -37.260  -6.413 -21.535  1.00  0.00     0.028 A 
HETATM    8  C   UNL     1     -34.587  -7.736 -17.636  1.00  0.00     0.157 C 
HETATM    9  C   UNL     1     -36.290  -6.874 -22.444  1.00  0.00    -0.061 A 
HETATM   10  C   UNL     1     -35.089  -7.434 -21.958  1.00  0.00     0.009 A 
HETATM   11  C   UNL     1     -36.519  -6.779 -23.922  1.00  0.00     0.048 C 
ENDROOT
BRANCH   4  12
HETATM   12  C   UNL     1     -37.117  -6.342 -16.257  1.00  0.00    -0.002 A 
HETATM   13  C   UNL     1     -37.169  -7.394 -15.325  1.00  0.00     0.016 A 
HETATM   14  C   UNL     1     -37.401  -7.145 -13.968  1.00  0.00     0.030 A 
HETATM   15  C   UNL     1     -37.581  -5.833 -13.485  1.00  0.00     0.029 A 
HETATM   16  C   UNL     1     -37.506  -4.779 -14.420  1.00  0.00     0.030 A 
HETATM   17  C   UNL     1     -37.270  -5.030 -15.774  1.00  0.00     0.016 A 
BRANCH  15  18
HETATM   18  N   UNL     1     -37.821  -5.575 -12.084  1.00  0.00    -0.390 N 
HETATM   19  C   UNL     1     -38.200  -6.657 -11.185  1.00  0.00     0.149 C 
HETATM   20  C   UNL     1     -37.690  -4.229 -11.544  1.00  0.00     0.149 C 
ENDBRANCH  15  18
ENDBRANCH   4  12
TORSDOF 2
ENDMDL
MODEL 6
REMARK VINA RESULT:      -6.5      2.424      3.205
REMARK  2 active torsions:
REMARK  status: ('A' for Active; 'I' for Inactive)
REMARK    1  A    between atoms: N_3  and  C_15 
REMARK    2  A    between atoms: C_5  and  C_7 
ROOT
HETATM    1  S   UNL     1     -36.297  -7.782 -13.137  1.00  0.00    -0.069 SA
HETATM    2  N   UNL     1     -37.170  -5.572 -14.015  1.00  0.00    -0.344 N 
HETATM    3  C   UNL     1     -37.277  -5.543 -12.648  1.00  0.00     0.052 A 
HETATM    4  C   UNL     1     -36.611  -6.752 -14.451  1.00  0.00     0.087 A 
HETATM    5  C   UNL     1     -36.838  -6.688 -12.001  1.00  0.00     0.034 A 
HETATM    6  C   UNL     1     -37.794  -4.482 -11.885  1.00  0.00     0.031 A 
HETATM    7  C   UNL     1     -36.880  -6.836 -10.618  1.00  0.00     0.028 A 
HETATM    8  C   UNL     1     -37.678  -4.468 -14.842  1.00  0.00     0.157 C 
HETATM    9  C   UNL     1     -37.391  -5.775  -9.846  1.00  0.00    -0.061 A 
HETATM   10  C   UNL     1     -37.847  -4.603 -10.487  1.00  0.00     0.009 A 
HETATM   11  C   UNL     1     -37.460  -5.879  -8.353  1.00  0.00     0.048 C 
ENDROOT
BRANCH   4  12
HETATM   12  C   UNL     1     -36.257  -7.153 -15.851  1.00  0.00    -0.002 A 
HETATM   13  C   UNL     1     -37.223  -7.428 -16.836  1.00  0.00     0.016 A 
HETATM   14  C   UNL     1     -36.848  -7.777 -18.137  1.00  0.00     0.030 A 
HETATM   15  C   UNL     1     -35.490  -7.856 -18.511  1.00  0.00     0.029 A 
HETATM   16  C   UNL     1     -34.525  -7.558 -17.526  1.00  0.00     0.030 A 
HETATM   17  C   UNL     1     -34.903  -7.205 -16.228  1.00  0.00     0.016 A 
BRANCH  15  18
HETATM   18  N   UNL     1     -35.102  -8.218 -19.854  1.00  0.00    -0.390 N 
HETATM   19  C   UNL     1     -34.934  -7.195 -20.879  1.00  0.00     0.149 C 
HETATM   20  C   UNL     1     -34.872  -9.611 -20.211  1.00  0.00     0.149 C 
ENDBRANCH  15  18
ENDBRANCH   4  12
TORSDOF 2
ENDMDL
MODEL 7
REMARK VINA RESULT:      -6.5      1.330      2.144
REMARK  2 active torsions:
REMARK  status: ('A' for Active; 'I' for Inactive)
REMARK    1  A    between atoms: N_3  and  C_15 
REMARK    2  A    between atoms: C_5  and  C_7 
ROOT
HETATM    1  S   UNL     1     -37.611  -5.835 -12.270  1.00  0.00    -0.069 SA
HETATM    2  N   UNL     1     -35.646  -7.237 -13.041  1.00  0.00    -0.344 N 
HETATM    3  C   UNL     1     -35.663  -7.269 -11.669  1.00  0.00     0.052 A 
HETATM    4  C   UNL     1     -36.693  -6.495 -13.539  1.00  0.00     0.087 A 
HETATM    5  C   UNL     1     -36.686  -6.545 -11.078  1.00  0.00     0.034 A 
HETATM    6  C   UNL     1     -34.741  -7.945 -10.850  1.00  0.00     0.031 A 
HETATM    7  C   UNL     1     -36.850  -6.460  -9.698  1.00  0.00     0.028 A 
HETATM    8  C   UNL     1     -34.569  -7.882 -13.804  1.00  0.00     0.157 C 
HETATM    9  C   UNL     1     -35.935  -7.139  -8.872  1.00  0.00    -0.061 A 
HETATM   10  C   UNL     1     -34.884  -7.878  -9.455  1.00  0.00     0.009 A 
HETATM   11  C   UNL     1     -36.064  -7.083  -7.380  1.00  0.00     0.048 C 
ENDROOT
BRANCH   4  12
HETATM   12  C   UNL     1     -37.077  -6.271 -14.970  1.00  0.00    -0.002 A 
HETATM   13  C   UNL     1     -37.028  -5.007 -15.586  1.00  0.00     0.016 A 
HETATM   14  C   UNL     1     -37.374  -4.847 -16.931  1.00  0.00     0.030 A 
HETATM   15  C   UNL     1     -37.774  -5.945 -17.721  1.00  0.00     0.029 A 
HETATM   16  C   UNL     1     -37.799  -7.214 -17.104  1.00  0.00     0.030 A 
HETATM   17  C   UNL     1     -37.449  -7.372 -15.761  1.00  0.00     0.016 A 
BRANCH  15  18
HETATM   18  N   UNL     1     -38.132  -5.780 -19.110  1.00  0.00    -0.390 N 
HETATM   19  C   UNL     1     -38.965  -6.767 -19.783  1.00  0.00     0.149 C 
HETATM   20  C   UNL     1     -37.666  -4.625 -19.864  1.00  0.00     0.149 C 
ENDBRANCH  15  18
ENDBRANCH   4  12
TORSDOF 2
ENDMDL
MODEL 8
REMARK VINA RESULT:      -6.4      1.969      2.815
REMARK  2 active torsions:
REMARK  status: ('A' for Active; 'I' for Inactive)
REMARK    1  A    between atoms: N_3  and  C_15 
REMARK    2  A    between atoms: C_5  and  C_7 
ROOT
HETATM    1  S   UNL     1     -37.613  -4.917 -14.603  1.00  0.00    -0.069 SA
HETATM    2  N   UNL     1     -36.142  -6.967 -14.373  1.00  0.00    -0.344 N 
HETATM    3  C   UNL     1     -36.474  -6.554 -13.108  1.00  0.00     0.052 A 
HETATM    4  C   UNL     1     -36.725  -6.170 -15.332  1.00  0.00     0.087 A 
HETATM    5  C   UNL     1     -37.285  -5.431 -13.052  1.00  0.00     0.034 A 
HETATM    6  C   UNL     1     -36.054  -7.155 -11.909  1.00  0.00     0.031 A 
HETATM    7  C   UNL     1     -37.712  -4.869 -11.852  1.00  0.00     0.028 A 
HETATM    8  C   UNL     1     -35.216  -8.088 -14.590  1.00  0.00     0.157 C 
HETATM    9  C   UNL     1     -37.301  -5.469 -10.647  1.00  0.00    -0.061 A 
HETATM   10  C   UNL     1     -36.472  -6.610 -10.684  1.00  0.00     0.009 A 
HETATM   11  C   UNL     1     -37.732  -4.907  -9.326  1.00  0.00     0.048 C 
ENDROOT
BRANCH   4  12
HETATM   12  C   UNL     1     -36.677  -6.320 -16.822  1.00  0.00    -0.002 A 
HETATM   13  C   UNL     1     -35.815  -7.220 -17.473  1.00  0.00     0.016 A 
HETATM   14  C   UNL     1     -35.818  -7.343 -18.866  1.00  0.00     0.030 A 
HETATM   15  C   UNL     1     -36.691  -6.578 -19.667  1.00  0.00     0.029 A 
HETATM   16  C   UNL     1     -37.570  -5.692 -19.008  1.00  0.00     0.030 A 
HETATM   17  C   UNL     1     -37.567  -5.575 -17.616  1.00  0.00     0.016 A 
BRANCH  15  18
HETATM   18  N   UNL     1     -36.695  -6.704 -21.105  1.00  0.00    -0.390 N 
HETATM   19  C   UNL     1     -35.594  -7.364 -21.795  1.00  0.00     0.149 C 
HETATM   20  C   UNL     1     -37.798  -6.173 -21.894  1.00  0.00     0.149 C 
ENDBRANCH  15  18
ENDBRANCH   4  12
TORSDOF 2
ENDMDL
MODEL 9
REMARK VINA RESULT:      -6.4      2.241      8.269
REMARK  2 active torsions:
REMARK  status: ('A' for Active; 'I' for Inactive)
REMARK    1  A    between atoms: N_3  and  C_15 
REMARK    2  A    between atoms: C_5  and  C_7 
ROOT
HETATM    1  S   UNL     1     -37.663  -4.810 -11.159  1.00  0.00    -0.069 SA
HETATM    2  N   UNL     1     -36.569  -7.073 -11.484  1.00  0.00    -0.344 N 
HETATM    3  C   UNL     1     -36.794  -6.541 -12.728  1.00  0.00     0.052 A 
HETATM    4  C   UNL     1     -36.975  -6.212 -10.489  1.00  0.00     0.087 A 
HETATM    5  C   UNL     1     -37.394  -5.292 -12.733  1.00  0.00     0.034 A 
HETATM    6  C   UNL     1     -36.487  -7.157 -13.954  1.00  0.00     0.031 A 
HETATM    7  C   UNL     1     -37.703  -4.608 -13.905  1.00  0.00     0.028 A 
HETATM    8  C   UNL     1     -36.024  -8.428 -11.321  1.00  0.00     0.157 C 
HETATM    9  C   UNL     1     -37.393  -5.215 -15.136  1.00  0.00    -0.061 A 
HETATM   10  C   UNL     1     -36.786  -6.489 -15.152  1.00  0.00     0.009 A 
HETATM   11  C   UNL     1     -37.702  -4.524 -16.430  1.00  0.00     0.048 C 
ENDROOT
BRANCH   4  12
HETATM   12  C   UNL     1     -36.842  -6.376  -9.005  1.00  0.00    -0.002 A 
HETATM   13  C   UNL     1     -35.857  -7.183  -8.409  1.00  0.00     0.016 A 
HETATM   14  C   UNL     1     -35.755  -7.290  -7.019  1.00  0.00     0.030 A 
HETATM   15  C   UNL     1     -36.628  -6.586  -6.164  1.00  0.00     0.029 A 
HETATM   16  C   UNL     1     -37.601  -5.759  -6.766  1.00  0.00     0.030 A 
HETATM   17  C   UNL     1     -37.697  -5.651  -8.156  1.00  0.00     0.016 A 
BRANCH  15  18
HETATM   18  N   UNL     1     -36.524  -6.696  -4.728  1.00  0.00    -0.390 N 
HETATM   19  C   UNL     1     -35.492  -7.526  -4.121  1.00  0.00     0.149 C 
HETATM   20  C   UNL     1     -37.450  -5.982  -3.860  1.00  0.00     0.149 C 
ENDBRANCH  15  18
ENDBRANCH   4  12
TORSDOF 2
ENDMDL
MODEL 10
REMARK VINA RESULT:      -6.4      2.240      8.424
REMARK  2 active torsions:
REMARK  status: ('A' for Active; 'I' for Inactive)
REMARK    1  A    between atoms: N_3  and  C_15 
REMARK    2  A    between atoms: C_5  and  C_7 
ROOT
HETATM    1  S   UNL     1     -36.070  -7.598 -17.459  1.00  0.00    -0.069 SA
HETATM    2  N   UNL     1     -37.223  -5.398 -16.955  1.00  0.00    -0.344 N 
HETATM    3  C   UNL     1     -37.272  -5.588 -18.313  1.00  0.00     0.052 A 
HETATM    4  C   UNL     1     -36.604  -6.452 -16.323  1.00  0.00     0.087 A 
HETATM    5  C   UNL     1     -36.680  -6.757 -18.764  1.00  0.00     0.034 A 
HETATM    6  C   UNL     1     -37.845  -4.707 -19.247  1.00  0.00     0.031 A 
HETATM    7  C   UNL     1     -36.631  -7.107 -20.110  1.00  0.00     0.028 A 
HETATM    8  C   UNL     1     -37.729  -4.163 -16.340  1.00  0.00     0.157 C 
HETATM    9  C   UNL     1     -37.207  -6.234 -21.051  1.00  0.00    -0.061 A 
HETATM   10  C   UNL     1     -37.811  -5.036 -20.612  1.00  0.00     0.009 A 
HETATM   11  C   UNL     1     -37.184  -6.560 -22.514  1.00  0.00     0.048 C 
ENDROOT
BRANCH   4  12
HETATM   12  C   UNL     1     -36.409  -6.671 -14.853  1.00  0.00    -0.002 A 
HETATM   13  C   UNL     1     -37.333  -6.236 -13.886  1.00  0.00     0.016 A 
HETATM   14  C   UNL     1     -37.123  -6.481 -12.525  1.00  0.00     0.030 A 
HETATM   15  C   UNL     1     -35.984  -7.181 -12.075  1.00  0.00     0.029 A 
HETATM   16  C   UNL     1     -35.071  -7.636 -13.050  1.00  0.00     0.030 A 
HETATM   17  C   UNL     1     -35.287  -7.393 -14.409  1.00  0.00     0.016 A 
BRANCH  15  18
HETATM   18  N   UNL     1     -35.765  -7.434 -10.670  1.00  0.00    -0.390 N 
HETATM   19  C   UNL     1     -34.654  -8.267 -10.230  1.00  0.00     0.149 C 
HETATM   20  C   UNL     1     -36.653  -6.863  -9.666  1.00  0.00     0.149 C 
ENDBRANCH  15  18
ENDBRANCH   4  12
TORSDOF 2
ENDMDL
MODEL 11
REMARK VINA RESULT:      -6.3      1.272      1.857
REMARK  2 active torsions:
REMARK  status: ('A' for Active; 'I' for Inactive)
REMARK    1  A    between atoms: N_3  and  C_15 
REMARK    2  A    between atoms: C_5  and  C_7 
ROOT
HETATM    1  S   UNL     1     -38.025  -4.874 -10.095  1.00  0.00    -0.069 SA
HETATM    2  N   UNL     1     -36.466  -6.869 -10.206  1.00  0.00    -0.344 N 
HETATM    3  C   UNL     1     -36.629  -6.546  -8.883  1.00  0.00     0.052 A 
HETATM    4  C   UNL     1     -37.207  -6.042 -11.020  1.00  0.00     0.087 A 
HETATM    5  C   UNL     1     -37.462  -5.465  -8.641  1.00  0.00     0.034 A 
HETATM    6  C   UNL     1     -36.022  -7.199  -7.796  1.00  0.00     0.031 A 
HETATM    7  C   UNL     1     -37.734  -4.995  -7.359  1.00  0.00     0.028 A 
HETATM    8  C   UNL     1     -35.542  -7.933 -10.622  1.00  0.00     0.157 C 
HETATM    9  C   UNL     1     -37.135  -5.647  -6.266  1.00  0.00    -0.061 A 
HETATM   10  C   UNL     1     -36.281  -6.747  -6.492  1.00  0.00     0.009 A 
HETATM   11  C   UNL     1     -37.393  -5.183  -4.864  1.00  0.00     0.048 C 
ENDROOT
BRANCH   4  12
HETATM   12  C   UNL     1     -37.365  -6.100 -12.509  1.00  0.00    -0.002 A 
HETATM   13  C   UNL     1     -37.442  -7.308 -13.224  1.00  0.00     0.016 A 
HETATM   14  C   UNL     1     -37.613  -7.317 -14.612  1.00  0.00     0.030 A 
HETATM   15  C   UNL     1     -37.723  -6.116 -15.343  1.00  0.00     0.029 A 
HETATM   16  C   UNL     1     -37.668  -4.906 -14.619  1.00  0.00     0.030 A 
HETATM   17  C   UNL     1     -37.502  -4.901 -13.232  1.00  0.00     0.016 A 
BRANCH  15  18
HETATM   18  N   UNL     1     -37.898  -6.123 -16.777  1.00  0.00    -0.390 N 
HETATM   19  C   UNL     1     -37.614  -4.931 -17.565  1.00  0.00     0.149 C 
HETATM   20  C   UNL     1     -38.363  -7.322 -17.462  1.00  0.00     0.149 C 
ENDBRANCH  15  18
ENDBRANCH   4  12
TORSDOF 2
ENDMDL
MODEL 12
REMARK VINA RESULT:      -6.3      2.260      8.213
REMARK  2 active torsions:
REMARK  status: ('A' for Active; 'I' for Inactive)
REMARK    1  A    between atoms: N_3  and  C_15 
REMARK    2  A    between atoms: C_5  and  C_7 
ROOT
HETATM    1  S   UNL     1     -36.107  -7.610 -12.586  1.00  0.00    -0.069 SA
HETATM    2  N   UNL     1     -37.228  -5.403 -12.045  1.00  0.00    -0.344 N 
HETATM    3  C   UNL     1     -37.300  -5.580 -13.404  1.00  0.00     0.052 A 
HETATM    4  C   UNL     1     -36.610  -6.470 -11.431  1.00  0.00     0.087 A 
HETATM    5  C   UNL     1     -36.728  -6.752 -13.874  1.00  0.00     0.034 A 
HETATM    6  C   UNL     1     -37.878  -4.685 -14.320  1.00  0.00     0.031 A 
HETATM    7  C   UNL     1     -36.703  -7.090 -15.224  1.00  0.00     0.028 A 
HETATM    8  C   UNL     1     -37.711  -4.169 -11.411  1.00  0.00     0.157 C 
HETATM    9  C   UNL     1     -37.284  -6.201 -16.147  1.00  0.00    -0.061 A 
HETATM   10  C   UNL     1     -37.868  -5.002 -15.688  1.00  0.00     0.009 A 
HETATM   11  C   UNL     1     -37.287  -6.515 -17.613  1.00  0.00     0.048 C 
ENDROOT
BRANCH   4  12
HETATM   12  C   UNL     1     -36.396  -6.704  -9.967  1.00  0.00    -0.002 A 
HETATM   13  C   UNL     1     -37.315  -6.296  -8.984  1.00  0.00     0.016 A 
HETATM   14  C   UNL     1     -37.085  -6.555  -7.629  1.00  0.00     0.030 A 
HETATM   15  C   UNL     1     -35.930  -7.243  -7.200  1.00  0.00     0.029 A 
HETATM   16  C   UNL     1     -35.022  -7.671  -8.192  1.00  0.00     0.030 A 
HETATM   17  C   UNL     1     -35.257  -7.414  -9.545  1.00  0.00     0.016 A 
BRANCH  15  18
HETATM   18  N   UNL     1     -35.692  -7.510  -5.801  1.00  0.00    -0.390 N 
HETATM   19  C   UNL     1     -36.519  -6.888  -4.776  1.00  0.00     0.149 C 
HETATM   20  C   UNL     1     -34.620  -8.406  -5.389  1.00  0.00     0.149 C 
ENDBRANCH  15  18
ENDBRANCH   4  12
TORSDOF 2
ENDMDL
MODEL 13
REMARK VINA RESULT:      -6.3      2.941      4.280
REMARK  2 active torsions:
REMARK  status: ('A' for Active; 'I' for Inactive)
REMARK    1  A    between atoms: N_3  and  C_15 
REMARK    2  A    between atoms: C_5  and  C_7 
ROOT
HETATM    1  S   UNL     1     -36.285  -7.763  -8.310  1.00  0.00    -0.069 SA
HETATM    2  N   UNL     1     -37.168  -5.551  -9.174  1.00  0.00    -0.344 N 
HETATM    3  C   UNL     1     -37.273  -5.531  -7.806  1.00  0.00     0.052 A 
HETATM    4  C   UNL     1     -36.604  -6.726  -9.618  1.00  0.00     0.087 A 
HETATM    5  C   UNL     1     -36.829  -6.678  -7.167  1.00  0.00     0.034 A 
HETATM    6  C   UNL     1     -37.795  -4.477  -7.036  1.00  0.00     0.031 A 
HETATM    7  C   UNL     1     -36.869  -6.834  -5.784  1.00  0.00     0.028 A 
HETATM    8  C   UNL     1     -37.682  -4.444  -9.993  1.00  0.00     0.157 C 
HETATM    9  C   UNL     1     -37.384  -5.781  -5.006  1.00  0.00    -0.061 A 
HETATM   10  C   UNL     1     -37.845  -4.607  -5.639  1.00  0.00     0.009 A 
HETATM   11  C   UNL     1     -37.450  -5.894  -3.513  1.00  0.00     0.048 C 
ENDROOT
BRANCH   4  12
HETATM   12  C   UNL     1     -36.250  -7.117 -11.020  1.00  0.00    -0.002 A 
HETATM   13  C   UNL     1     -37.213  -7.314 -12.026  1.00  0.00     0.016 A 
HETATM   14  C   UNL     1     -36.837  -7.657 -13.328  1.00  0.00     0.030 A 
HETATM   15  C   UNL     1     -35.480  -7.807 -13.683  1.00  0.00     0.029 A 
HETATM   16  C   UNL     1     -34.516  -7.585 -12.676  1.00  0.00     0.030 A 
HETATM   17  C   UNL     1     -34.895  -7.239 -11.377  1.00  0.00     0.016 A 
BRANCH  15  18
HETATM   18  N   UNL     1     -35.090  -8.162 -15.027  1.00  0.00    -0.390 N 
HETATM   19  C   UNL     1     -34.886  -9.556 -15.397  1.00  0.00     0.149 C 
HETATM   20  C   UNL     1     -34.892  -7.132 -16.039  1.00  0.00     0.149 C 
ENDBRANCH  15  18
ENDBRANCH   4  12
TORSDOF 2
ENDMDL
MODEL 14
REMARK VINA RESULT:      -6.3      2.621      4.571
REMARK  2 active torsions:
REMARK  status: ('A' for Active; 'I' for Inactive)
REMARK    1  A    between atoms: N_3  and  C_15 
REMARK    2  A    between atoms: C_5  and  C_7 
ROOT
HETATM    1  S   UNL     1     -37.497  -4.676 -16.457  1.00  0.00    -0.069 SA
HETATM    2  N   UNL     1     -36.981  -7.149 -16.268  1.00  0.00    -0.344 N 
HETATM    3  C   UNL     1     -37.176  -6.670 -14.997  1.00  0.00     0.052 A 
HETATM    4  C   UNL     1     -37.154  -6.160 -17.210  1.00  0.00     0.087 A 
HETATM    5  C   UNL     1     -37.471  -5.318 -14.919  1.00  0.00     0.034 A 
HETATM    6  C   UNL     1     -37.085  -7.420 -13.812  1.00  0.00     0.031 A 
HETATM    7  C   UNL     1     -37.689  -4.663 -13.710  1.00  0.00     0.028 A 
HETATM    8  C   UNL     1     -36.574  -8.542 -16.503  1.00  0.00     0.157 C 
HETATM    9  C   UNL     1     -37.606  -5.408 -12.520  1.00  0.00    -0.061 A 
HETATM   10  C   UNL     1     -37.303  -6.785 -12.579  1.00  0.00     0.009 A 
HETATM   11  C   UNL     1     -37.833  -4.755 -11.190  1.00  0.00     0.048 C 
ENDROOT
BRANCH   4  12
HETATM   12  C   UNL     1     -37.104  -6.278 -18.703  1.00  0.00    -0.002 A 
HETATM   13  C   UNL     1     -38.090  -5.737 -19.547  1.00  0.00     0.016 A 
HETATM   14  C   UNL     1     -37.992  -5.851 -20.937  1.00  0.00     0.030 A 
HETATM   15  C   UNL     1     -36.898  -6.504 -21.543  1.00  0.00     0.029 A 
HETATM   16  C   UNL     1     -35.900  -7.025 -20.693  1.00  0.00     0.030 A 
HETATM   17  C   UNL     1     -35.998  -6.905 -19.305  1.00  0.00     0.016 A 
BRANCH  15  18
HETATM   18  N   UNL     1     -36.797  -6.623 -22.979  1.00  0.00    -0.390 N 
HETATM   19  C   UNL     1     -37.690  -5.871 -23.850  1.00  0.00     0.149 C 
HETATM   20  C   UNL     1     -35.801  -7.497 -23.583  1.00  0.00     0.149 C 
ENDBRANCH  15  18
ENDBRANCH   4  12
TORSDOF 2
ENDMDL
MODEL 15
REMARK VINA RESULT:      -6.2      2.642      4.307
REMARK  2 active torsions:
REMARK  status: ('A' for Active; 'I' for Inactive)
REMARK    1  A    between atoms: N_3  and  C_15 
REMARK    2  A    between atoms: C_5  and  C_7 
ROOT
HETATM    1  S   UNL     1     -37.661  -5.862  -7.532  1.00  0.00    -0.069 SA
HETATM    2  N   UNL     1     -35.639  -7.236  -8.198  1.00  0.00    -0.344 N 
HETATM    3  C   UNL     1     -35.703  -7.233  -6.827  1.00  0.00     0.052 A 
HETATM    4  C   UNL     1     -36.685  -6.532  -8.751  1.00  0.00     0.087 A 
HETATM    5  C   UNL     1     -36.763  -6.519  -6.291  1.00  0.00     0.034 A 
HETATM    6  C   UNL     1     -34.795  -7.866  -5.960  1.00  0.00     0.031 A 
HETATM    7  C   UNL     1     -36.977  -6.403  -4.920  1.00  0.00     0.028 A 
HETATM    8  C   UNL     1     -34.521  -7.874  -8.907  1.00  0.00     0.157 C 
HETATM    9  C   UNL     1     -36.076  -7.039  -4.046  1.00  0.00    -0.061 A 
HETATM   10  C   UNL     1     -34.988  -7.767  -4.573  1.00  0.00     0.009 A 
HETATM   11  C   UNL     1     -36.258  -6.948  -2.561  1.00  0.00     0.048 C 
ENDROOT
BRANCH   4  12
HETATM   12  C   UNL     1     -37.023  -6.353 -10.200  1.00  0.00    -0.002 A 
HETATM   13  C   UNL     1     -37.267  -7.432 -11.068  1.00  0.00     0.016 A 
HETATM   14  C   UNL     1     -37.601  -7.219 -12.409  1.00  0.00     0.030 A 
HETATM   15  C   UNL     1     -37.717  -5.916 -12.936  1.00  0.00     0.029 A 
HETATM   16  C   UNL     1     -37.494  -4.836 -12.056  1.00  0.00     0.030 A 
HETATM   17  C   UNL     1     -37.164  -5.052 -10.716  1.00  0.00     0.016 A 
BRANCH  15  18
HETATM   18  N   UNL     1     -38.061  -5.695 -14.321  1.00  0.00    -0.390 N 
HETATM   19  C   UNL     1     -37.590  -4.508 -15.022  1.00  0.00     0.149 C 
HETATM   20  C   UNL     1     -38.888  -6.652 -15.042  1.00  0.00     0.149 C 
ENDBRANCH  15  18
ENDBRANCH   4  12
TORSDOF 2
ENDMDL
MODEL 16
REMARK VINA RESULT:      -6.2      2.394      7.937
REMARK  2 active torsions:
REMARK  status: ('A' for Active; 'I' for Inactive)
REMARK    1  A    between atoms: N_3  and  C_15 
REMARK    2  A    between atoms: C_5  and  C_7 
ROOT
HETATM    1  S   UNL     1     -35.909  -7.712 -13.843  1.00  0.00    -0.069 SA
HETATM    2  N   UNL     1     -37.057  -5.726 -12.768  1.00  0.00    -0.344 N 
HETATM    3  C   UNL     1     -37.226  -5.615 -14.125  1.00  0.00     0.052 A 
HETATM    4  C   UNL     1     -36.360  -6.867 -12.440  1.00  0.00     0.087 A 
HETATM    5  C   UNL     1     -36.653  -6.632 -14.872  1.00  0.00     0.034 A 
HETATM    6  C   UNL     1     -37.901  -4.575 -14.788  1.00  0.00     0.031 A 
HETATM    7  C   UNL     1     -36.719  -6.675 -16.262  1.00  0.00     0.028 A 
HETATM    8  C   UNL     1     -37.531  -4.678 -11.853  1.00  0.00     0.157 C 
HETATM    9  C   UNL     1     -37.398  -5.641 -16.933  1.00  0.00    -0.061 A 
HETATM   10  C   UNL     1     -37.985  -4.595 -16.189  1.00  0.00     0.009 A 
HETATM   11  C   UNL     1     -37.501  -5.637 -18.428  1.00  0.00     0.048 C 
ENDROOT
BRANCH   4  12
HETATM   12  C   UNL     1     -36.028  -7.395 -11.077  1.00  0.00    -0.002 A 
HETATM   13  C   UNL     1     -37.005  -7.839 -10.169  1.00  0.00     0.016 A 
HETATM   14  C   UNL     1     -36.649  -8.346  -8.915  1.00  0.00     0.030 A 
HETATM   15  C   UNL     1     -35.298  -8.438  -8.520  1.00  0.00     0.029 A 
HETATM   16  C   UNL     1     -34.320  -8.012  -9.443  1.00  0.00     0.030 A 
HETATM   17  C   UNL     1     -34.679  -7.511 -10.696  1.00  0.00     0.016 A 
BRANCH  15  18
HETATM   18  N   UNL     1     -34.929  -8.960  -7.225  1.00  0.00    -0.390 N 
HETATM   19  C   UNL     1     -34.785  -8.071  -6.080  1.00  0.00     0.149 C 
HETATM   20  C   UNL     1     -34.693 -10.385  -7.039  1.00  0.00     0.149 C 
ENDBRANCH  15  18
ENDBRANCH   4  12
TORSDOF 2
ENDMDL
MODEL 17
REMARK VINA RESULT:      -6.2      1.714      2.339
REMARK  2 active torsions:
REMARK  status: ('A' for Active; 'I' for Inactive)
REMARK    1  A    between atoms: N_3  and  C_15 
REMARK    2  A    between atoms: C_5  and  C_7 
ROOT
HETATM    1  S   UNL     1     -36.645  -7.953 -10.978  1.00  0.00    -0.069 SA
HETATM    2  N   UNL     1     -37.334  -5.518 -11.105  1.00  0.00    -0.344 N 
HETATM    3  C   UNL     1     -37.269  -5.859  -9.778  1.00  0.00     0.052 A 
HETATM    4  C   UNL     1     -36.984  -6.576 -11.914  1.00  0.00     0.087 A 
HETATM    5  C   UNL     1     -36.902  -7.171  -9.527  1.00  0.00     0.034 A 
HETATM    6  C   UNL     1     -37.553  -5.009  -8.695  1.00  0.00     0.031 A 
HETATM    7  C   UNL     1     -36.793  -7.691  -8.240  1.00  0.00     0.028 A 
HETATM    8  C   UNL     1     -37.796  -4.188 -11.528  1.00  0.00     0.157 C 
HETATM    9  C   UNL     1     -37.070  -6.845  -7.151  1.00  0.00    -0.061 A 
HETATM   10  C   UNL     1     -37.450  -5.507  -7.386  1.00  0.00     0.009 A 
HETATM   11  C   UNL     1     -36.969  -7.351  -5.743  1.00  0.00     0.048 C 
ENDROOT
BRANCH   4  12
HETATM   12  C   UNL     1     -36.856  -6.603 -13.407  1.00  0.00    -0.002 A 
HETATM   13  C   UNL     1     -35.755  -7.173 -14.070  1.00  0.00     0.016 A 
HETATM   14  C   UNL     1     -35.687  -7.197 -15.466  1.00  0.00     0.030 A 
HETATM   15  C   UNL     1     -36.723  -6.661 -16.259  1.00  0.00     0.029 A 
HETATM   16  C   UNL     1     -37.836  -6.110 -15.590  1.00  0.00     0.030 A 
HETATM   17  C   UNL     1     -37.903  -6.092 -14.195  1.00  0.00     0.016 A 
BRANCH  15  18
HETATM   18  N   UNL     1     -36.652  -6.684 -17.702  1.00  0.00    -0.390 N 
HETATM   19  C   UNL     1     -37.626  -5.955 -18.504  1.00  0.00     0.149 C 
HETATM   20  C   UNL     1     -35.608  -7.438 -18.382  1.00  0.00     0.149 C 
ENDBRANCH  15  18
ENDBRANCH   4  12
TORSDOF 2
ENDMDL
MODEL 18
REMARK VINA RESULT:      -6.1      2.118      8.037
REMARK  2 active torsions:
REMARK  status: ('A' for Active; 'I' for Inactive)
REMARK    1  A    between atoms: N_3  and  C_15 
REMARK    2  A    between atoms: C_5  and  C_7 
ROOT
HETATM    1  S   UNL     1     -35.763  -7.935 -15.241  1.00  0.00    -0.069 SA
HETATM    2  N   UNL     1     -37.127  -5.799 -15.240  1.00  0.00    -0.344 N 
HETATM    3  C   UNL     1     -36.954  -6.178 -16.548  1.00  0.00     0.052 A 
HETATM    4  C   UNL     1     -36.542  -6.697 -14.375  1.00  0.00     0.087 A 
HETATM    5  C   UNL     1     -36.221  -7.340 -16.730  1.00  0.00     0.034 A 
HETATM    6  C   UNL     1     -37.434  -5.488 -17.674  1.00  0.00     0.031 A 
HETATM    7  C   UNL     1     -35.941  -7.866 -17.988  1.00  0.00     0.028 A 
HETATM    8  C   UNL     1     -37.805  -4.542 -14.895  1.00  0.00     0.157 C 
HETATM    9  C   UNL     1     -36.424  -7.184 -19.120  1.00  0.00    -0.061 A 
HETATM   10  C   UNL     1     -37.168  -5.997 -18.956  1.00  0.00     0.009 A 
HETATM   11  C   UNL     1     -36.153  -7.705 -20.500  1.00  0.00     0.048 C 
ENDROOT
BRANCH   4  12
HETATM   12  C   UNL     1     -36.562  -6.694 -12.877  1.00  0.00    -0.002 A 
HETATM   13  C   UNL     1     -37.695  -6.328 -12.127  1.00  0.00     0.016 A 
HETATM   14  C   UNL     1     -37.677  -6.360 -10.730  1.00  0.00     0.030 A 
HETATM   15  C   UNL     1     -36.527  -6.770 -10.022  1.00  0.00     0.029 A 
HETATM   16  C   UNL     1     -35.401  -7.158 -10.778  1.00  0.00     0.030 A 
HETATM   17  C   UNL     1     -35.424  -7.128 -12.175  1.00  0.00     0.016 A 
BRANCH  15  18
HETATM   18  N   UNL     1     -36.507  -6.803  -8.578  1.00  0.00    -0.390 N 
HETATM   19  C   UNL     1     -35.495  -7.574  -7.868  1.00  0.00     0.149 C 
HETATM   20  C   UNL     1     -37.499  -6.069  -7.805  1.00  0.00     0.149 C 
ENDBRANCH  15  18
ENDBRANCH   4  12
TORSDOF 2
ENDMDL
MODEL 19
REMARK VINA RESULT:      -6.1      2.140      2.826
REMARK  2 active torsions:
REMARK  status: ('A' for Active; 'I' for Inactive)
REMARK    1  A    between atoms: N_3  and  C_15 
REMARK    2  A    between atoms: C_5  and  C_7 
ROOT
HETATM    1  S   UNL     1     -37.573  -5.615 -14.109  1.00  0.00    -0.069 SA
HETATM    2  N   UNL     1     -35.674  -7.265 -13.806  1.00  0.00    -0.344 N 
HETATM    3  C   UNL     1     -36.090  -6.881 -12.556  1.00  0.00     0.052 A 
HETATM    4  C   UNL     1     -36.425  -6.665 -14.792  1.00  0.00     0.087 A 
HETATM    5  C   UNL     1     -37.134  -5.970 -12.540  1.00  0.00     0.034 A 
HETATM    6  C   UNL     1     -35.542  -7.316 -11.337  1.00  0.00     0.031 A 
HETATM    7  C   UNL     1     -37.676  -5.465 -11.361  1.00  0.00     0.028 A 
HETATM    8  C   UNL     1     -34.519  -8.156 -13.985  1.00  0.00     0.157 C 
HETATM    9  C   UNL     1     -37.137  -5.901 -10.136  1.00  0.00    -0.061 A 
HETATM   10  C   UNL     1     -36.071  -6.825 -10.133  1.00  0.00     0.009 A 
HETATM   11  C   UNL     1     -37.682  -5.392  -8.836  1.00  0.00     0.048 C 
ENDROOT
BRANCH   4  12
HETATM   12  C   UNL     1     -36.346  -6.868 -16.275  1.00  0.00    -0.002 A 
HETATM   13  C   UNL     1     -37.390  -6.522 -17.151  1.00  0.00     0.016 A 
HETATM   14  C   UNL     1     -37.266  -6.707 -18.531  1.00  0.00     0.030 A 
HETATM   15  C   UNL     1     -36.087  -7.238 -19.095  1.00  0.00     0.029 A 
HETATM   16  C   UNL     1     -35.033  -7.563 -18.215  1.00  0.00     0.030 A 
HETATM   17  C   UNL     1     -35.160  -7.372 -16.836  1.00  0.00     0.016 A 
BRANCH  15  18
HETATM   18  N   UNL     1     -35.958  -7.431 -20.521  1.00  0.00    -0.390 N 
HETATM   19  C   UNL     1     -37.074  -7.944 -21.304  1.00  0.00     0.149 C 
HETATM   20  C   UNL     1     -34.709  -7.117 -21.202  1.00  0.00     0.149 C 
ENDBRANCH  15  18
ENDBRANCH   4  12
TORSDOF 2
ENDMDL
MODEL 20
REMARK VINA RESULT:      -6.1      3.731      6.793
REMARK  2 active torsions:
REMARK  status: ('A' for Active; 'I' for Inactive)
REMARK    1  A    between atoms: N_3  and  C_15 
REMARK    2  A    between atoms: C_5  and  C_7 
ROOT
HETATM    1  S   UNL     1     -36.407  -7.859 -17.624  1.00  0.00    -0.069 SA
HETATM    2  N   UNL     1     -37.229  -5.663 -18.583  1.00  0.00    -0.344 N 
HETATM    3  C   UNL     1     -37.322  -5.577 -17.217  1.00  0.00     0.052 A 
HETATM    4  C   UNL     1     -36.705  -6.874 -18.976  1.00  0.00     0.087 A 
HETATM    5  C   UNL     1     -36.908  -6.706 -16.529  1.00  0.00     0.034 A 
HETATM    6  C   UNL     1     -37.805  -4.473 -16.493  1.00  0.00     0.031 A 
HETATM    7  C   UNL     1     -36.942  -6.797 -15.140  1.00  0.00     0.028 A 
HETATM    8  C   UNL     1     -37.715  -4.580 -19.450  1.00  0.00     0.157 C 
HETATM    9  C   UNL     1     -37.418  -5.694 -14.408  1.00  0.00    -0.061 A 
HETATM   10  C   UNL     1     -37.848  -4.537 -15.091  1.00  0.00     0.009 A 
HETATM   11  C   UNL     1     -37.476  -5.736 -12.911  1.00  0.00     0.048 C 
ENDROOT
BRANCH   4  12
HETATM   12  C   UNL     1     -36.374  -7.339 -20.361  1.00  0.00    -0.002 A 
HETATM   13  C   UNL     1     -37.324  -7.918 -21.222  1.00  0.00     0.016 A 
HETATM   14  C   UNL     1     -36.978  -8.319 -22.516  1.00  0.00     0.030 A 
HETATM   15  C   UNL     1     -35.667  -8.148 -23.008  1.00  0.00     0.029 A 
HETATM   16  C   UNL     1     -34.722  -7.546 -22.150  1.00  0.00     0.030 A 
HETATM   17  C   UNL     1     -35.074  -7.143 -20.859  1.00  0.00     0.016 A 
BRANCH  15  18
HETATM   18  N   UNL     1     -35.307  -8.562 -24.344  1.00  0.00    -0.390 N 
HETATM   19  C   UNL     1     -34.248  -9.539 -24.558  1.00  0.00     0.149 C 
HETATM   20  C   UNL     1     -35.996  -8.010 -25.503  1.00  0.00     0.149 C 
ENDBRANCH  15  18
ENDBRANCH   4  12
TORSDOF 2
ENDMDL
