MODEL 1
REMARK VINA RESULT:      -6.3      0.000      0.000
REMARK  15 active torsions:
REMARK  status: ('A' for Active; 'I' for Inactive)
REMARK    1  A    between atoms: O_1  and  C_18 
REMARK    2  A    between atoms: C_3  and  C_4 
REMARK    3  A    between atoms: C_3  and  C_5 
REMARK    4  A    between atoms: C_4  and  C_6 
REMARK    5  A    between atoms: C_5  and  C_7 
REMARK    6  A    between atoms: C_6  and  C_8 
REMARK    7  A    between atoms: C_7  and  C_9 
REMARK    8  A    between atoms: C_8  and  C_10 
REMARK    9  A    between atoms: C_9  and  C_11 
REMARK   10  A    between atoms: C_10  and  C_12 
REMARK   11  A    between atoms: C_11  and  C_13 
REMARK   12  A    between atoms: C_12  and  C_14 
REMARK   13  A    between atoms: C_13  and  C_15 
REMARK   14  A    between atoms: C_14  and  C_16 
REMARK   15  A    between atoms: C_16  and  C_18 
ROOT
HETATM    1  O   UNL     1      -1.206  -6.398 -19.369  1.00  0.00    -0.776 OA
HETATM    2  H   UNL     1      -0.761  -5.780 -19.965  1.00  0.00     0.167 HD
ENDROOT
BRANCH   1   3
HETATM    3  C   UNL     1      -2.087  -7.311 -19.831  1.00  0.00     0.139 C 
HETATM    4  O   UNL     1      -2.232  -7.459 -21.036  1.00  0.00    -0.650 OA
BRANCH   3   5
HETATM    5  C   UNL     1      -2.875  -8.131 -18.842  1.00  0.00     0.110 C 
BRANCH   5   6
HETATM    6  C   UNL     1      -2.418  -7.927 -17.390  1.00  0.00     0.010 C 
BRANCH   6   7
HETATM    7  C   UNL     1      -3.616  -7.903 -16.435  1.00  0.00     0.001 C 
BRANCH   7   8
HETATM    8  C   UNL     1      -3.280  -7.136 -15.149  1.00  0.00     0.000 C 
BRANCH   8   9
HETATM    9  C   UNL     1      -1.867  -7.476 -14.659  1.00  0.00     0.000 C 
BRANCH   9  10
HETATM   10  C   UNL     1      -1.911  -8.524 -13.541  1.00  0.00     0.000 C 
BRANCH  10  11
HETATM   11  C   UNL     1      -2.833  -8.074 -12.401  1.00  0.00     0.000 C 
BRANCH  11  12
HETATM   12  C   UNL     1      -2.073  -7.219 -11.381  1.00  0.00     0.000 C 
BRANCH  12  13
HETATM   13  C   UNL     1      -2.769  -7.242 -10.016  1.00  0.00     0.000 C 
BRANCH  13  14
HETATM   14  C   UNL     1      -1.868  -7.876  -8.949  1.00  0.00     0.000 C 
BRANCH  14  15
HETATM   15  C   UNL     1      -2.695  -8.391  -7.765  1.00  0.00     0.000 C 
BRANCH  15  16
HETATM   16  C   UNL     1      -1.941  -8.201  -6.444  1.00  0.00     0.000 C 
BRANCH  16  17
HETATM   17  C   UNL     1      -2.684  -7.228  -5.521  1.00  0.00    -0.000 C 
BRANCH  17  18
HETATM   18  C   UNL     1      -2.169  -7.333  -4.081  1.00  0.00    -0.005 C 
HETATM   19  C   UNL     1      -2.947  -8.383  -3.292  1.00  0.00     0.005 C 
ENDBRANCH  17  18
ENDBRANCH  16  17
ENDBRANCH  15  16
ENDBRANCH  14  15
ENDBRANCH  13  14
ENDBRANCH  12  13
ENDBRANCH  11  12
ENDBRANCH  10  11
ENDBRANCH   9  10
ENDBRANCH   8   9
ENDBRANCH   7   8
ENDBRANCH   6   7
ENDBRANCH   5   6
ENDBRANCH   3   5
ENDBRANCH   1   3
TORSDOF 15
ENDMDL
MODEL 2
REMARK VINA RESULT:      -6.0      4.511     12.224
REMARK  15 active torsions:
REMARK  status: ('A' for Active; 'I' for Inactive)
REMARK    1  A    between atoms: O_1  and  C_18 
REMARK    2  A    between atoms: C_3  and  C_4 
REMARK    3  A    between atoms: C_3  and  C_5 
REMARK    4  A    between atoms: C_4  and  C_6 
REMARK    5  A    between atoms: C_5  and  C_7 
REMARK    6  A    between atoms: C_6  and  C_8 
REMARK    7  A    between atoms: C_7  and  C_9 
REMARK    8  A    between atoms: C_8  and  C_10 
REMARK    9  A    between atoms: C_9  and  C_11 
REMARK   10  A    between atoms: C_10  and  C_12 
REMARK   11  A    between atoms: C_11  and  C_13 
REMARK   12  A    between atoms: C_12  and  C_14 
REMARK   13  A    between atoms: C_13  and  C_15 
REMARK   14  A    between atoms: C_14  and  C_16 
REMARK   15  A    between atoms: C_16  and  C_18 
ROOT
HETATM    1  O   UNL     1      -1.465  -6.793  -8.493  1.00  0.00    -0.776 OA
HETATM    2  H   UNL     1      -1.788  -6.070  -7.937  1.00  0.00     0.167 HD
ENDROOT
BRANCH   1   3
HETATM    3  C   UNL     1      -2.289  -7.772  -8.923  1.00  0.00     0.139 C 
HETATM    4  O   UNL     1      -2.389  -8.807  -8.280  1.00  0.00    -0.650 OA
BRANCH   3   5
HETATM    5  C   UNL     1      -3.070  -7.563 -10.194  1.00  0.00     0.110 C 
BRANCH   5   6
HETATM    6  C   UNL     1      -2.176  -7.310 -11.417  1.00  0.00     0.010 C 
BRANCH   6   7
HETATM    7  C   UNL     1      -2.571  -8.220 -12.585  1.00  0.00     0.001 C 
BRANCH   7   8
HETATM    8  C   UNL     1      -1.888  -7.776 -13.885  1.00  0.00     0.000 C 
BRANCH   8   9
HETATM    9  C   UNL     1      -2.885  -7.747 -15.049  1.00  0.00     0.000 C 
BRANCH   9  10
HETATM   10  C   UNL     1      -2.159  -7.613 -16.392  1.00  0.00     0.000 C 
BRANCH  10  11
HETATM   11  C   UNL     1      -3.007  -8.184 -17.536  1.00  0.00     0.000 C 
BRANCH  11  12
HETATM   12  C   UNL     1      -2.244  -8.136 -18.865  1.00  0.00     0.000 C 
BRANCH  12  13
HETATM   13  C   UNL     1      -2.953  -7.226 -19.874  1.00  0.00     0.000 C 
BRANCH  13  14
HETATM   14  C   UNL     1      -2.107  -7.044 -21.140  1.00  0.00     0.000 C 
BRANCH  14  15
HETATM   15  C   UNL     1      -2.132  -8.310 -22.006  1.00  0.00     0.000 C 
BRANCH  15  16
HETATM   16  C   UNL     1      -2.794  -8.035 -23.361  1.00  0.00     0.000 C 
BRANCH  16  17
HETATM   17  C   UNL     1      -1.750  -7.982 -24.483  1.00  0.00    -0.000 C 
BRANCH  17  18
HETATM   18  C   UNL     1      -2.262  -7.162 -25.673  1.00  0.00    -0.005 C 
HETATM   19  C   UNL     1      -3.760  -6.896 -25.554  1.00  0.00     0.005 C 
ENDBRANCH  17  18
ENDBRANCH  16  17
ENDBRANCH  15  16
ENDBRANCH  14  15
ENDBRANCH  13  14
ENDBRANCH  12  13
ENDBRANCH  11  12
ENDBRANCH  10  11
ENDBRANCH   9  10
ENDBRANCH   8   9
ENDBRANCH   7   8
ENDBRANCH   6   7
ENDBRANCH   5   6
ENDBRANCH   3   5
ENDBRANCH   1   3
TORSDOF 15
ENDMDL
MODEL 3
REMARK VINA RESULT:      -5.9      2.117      4.384
REMARK  15 active torsions:
REMARK  status: ('A' for Active; 'I' for Inactive)
REMARK    1  A    between atoms: O_1  and  C_18 
REMARK    2  A    between atoms: C_3  and  C_4 
REMARK    3  A    between atoms: C_3  and  C_5 
REMARK    4  A    between atoms: C_4  and  C_6 
REMARK    5  A    between atoms: C_5  and  C_7 
REMARK    6  A    between atoms: C_6  and  C_8 
REMARK    7  A    between atoms: C_7  and  C_9 
REMARK    8  A    between atoms: C_8  and  C_10 
REMARK    9  A    between atoms: C_9  and  C_11 
REMARK   10  A    between atoms: C_10  and  C_12 
REMARK   11  A    between atoms: C_11  and  C_13 
REMARK   12  A    between atoms: C_12  and  C_14 
REMARK   13  A    between atoms: C_13  and  C_15 
REMARK   14  A    between atoms: C_14  and  C_16 
REMARK   15  A    between atoms: C_16  and  C_18 
ROOT
HETATM    1  O   UNL     1      -1.446  -6.465 -24.354  1.00  0.00    -0.776 OA
HETATM    2  H   UNL     1      -1.687  -5.581 -24.663  1.00  0.00     0.167 HD
ENDROOT
BRANCH   1   3
HETATM    3  C   UNL     1      -2.385  -7.385 -24.046  1.00  0.00     0.139 C 
HETATM    4  O   UNL     1      -3.450  -7.389 -24.646  1.00  0.00    -0.650 OA
BRANCH   3   5
HETATM    5  C   UNL     1      -2.094  -8.393 -22.964  1.00  0.00     0.110 C 
BRANCH   5   6
HETATM    6  C   UNL     1      -2.870  -8.124 -21.666  1.00  0.00     0.010 C 
BRANCH   6   7
HETATM    7  C   UNL     1      -2.101  -7.160 -20.756  1.00  0.00     0.001 C 
BRANCH   7   8
HETATM    8  C   UNL     1      -2.010  -7.707 -19.326  1.00  0.00     0.000 C 
BRANCH   8   9
HETATM    9  C   UNL     1      -3.392  -8.121 -18.806  1.00  0.00     0.000 C 
BRANCH   9  10
HETATM   10  C   UNL     1      -3.367  -8.331 -17.287  1.00  0.00     0.000 C 
BRANCH  10  11
HETATM   11  C   UNL     1      -2.164  -7.623 -16.653  1.00  0.00     0.000 C 
BRANCH  11  12
HETATM   12  C   UNL     1      -2.563  -6.917 -15.352  1.00  0.00     0.000 C 
BRANCH  12  13
HETATM   13  C   UNL     1      -1.698  -7.393 -14.180  1.00  0.00     0.000 C 
BRANCH  13  14
HETATM   14  C   UNL     1      -2.487  -8.333 -13.261  1.00  0.00     0.000 C 
BRANCH  14  15
HETATM   15  C   UNL     1      -2.346  -7.915 -11.792  1.00  0.00     0.000 C 
BRANCH  15  16
HETATM   16  C   UNL     1      -3.717  -7.812 -11.115  1.00  0.00     0.000 C 
BRANCH  16  17
HETATM   17  C   UNL     1      -3.573  -7.433  -9.636  1.00  0.00    -0.000 C 
BRANCH  17  18
HETATM   18  C   UNL     1      -2.339  -8.099  -9.015  1.00  0.00    -0.005 C 
HETATM   19  C   UNL     1      -2.278  -7.852  -7.510  1.00  0.00     0.005 C 
ENDBRANCH  17  18
ENDBRANCH  16  17
ENDBRANCH  15  16
ENDBRANCH  14  15
ENDBRANCH  13  14
ENDBRANCH  12  13
ENDBRANCH  11  12
ENDBRANCH  10  11
ENDBRANCH   9  10
ENDBRANCH   8   9
ENDBRANCH   7   8
ENDBRANCH   6   7
ENDBRANCH   5   6
ENDBRANCH   3   5
ENDBRANCH   1   3
TORSDOF 15
ENDMDL
MODEL 4
REMARK VINA RESULT:      -5.3      3.412      6.717
REMARK  15 active torsions:
REMARK  status: ('A' for Active; 'I' for Inactive)
REMARK    1  A    between atoms: O_1  and  C_18 
REMARK    2  A    between atoms: C_3  and  C_4 
REMARK    3  A    between atoms: C_3  and  C_5 
REMARK    4  A    between atoms: C_4  and  C_6 
REMARK    5  A    between atoms: C_5  and  C_7 
REMARK    6  A    between atoms: C_6  and  C_8 
REMARK    7  A    between atoms: C_7  and  C_9 
REMARK    8  A    between atoms: C_8  and  C_10 
REMARK    9  A    between atoms: C_9  and  C_11 
REMARK   10  A    between atoms: C_10  and  C_12 
REMARK   11  A    between atoms: C_11  and  C_13 
REMARK   12  A    between atoms: C_12  and  C_14 
REMARK   13  A    between atoms: C_13  and  C_15 
REMARK   14  A    between atoms: C_14  and  C_16 
REMARK   15  A    between atoms: C_16  and  C_18 
ROOT
HETATM    1  O   UNL     1      -1.678  -4.892 -25.798  1.00  0.00    -0.776 OA
HETATM    2  H   UNL     1      -2.330  -4.267 -26.145  1.00  0.00     0.167 HD
ENDROOT
BRANCH   1   3
HETATM    3  C   UNL     1      -1.723  -6.204 -26.112  1.00  0.00     0.139 C 
HETATM    4  O   UNL     1      -0.683  -6.833 -26.240  1.00  0.00    -0.650 OA
BRANCH   3   5
HETATM    5  C   UNL     1      -3.064  -6.865 -26.298  1.00  0.00     0.110 C 
BRANCH   5   6
HETATM    6  C   UNL     1      -3.648  -7.422 -24.990  1.00  0.00     0.010 C 
BRANCH   6   7
HETATM    7  C   UNL     1      -2.535  -7.791 -24.004  1.00  0.00     0.001 C 
BRANCH   7   8
HETATM    8  C   UNL     1      -3.101  -8.033 -22.600  1.00  0.00     0.000 C 
BRANCH   8   9
HETATM    9  C   UNL     1      -2.003  -7.917 -21.535  1.00  0.00     0.000 C 
BRANCH   9  10
HETATM   10  C   UNL     1      -2.557  -7.319 -20.237  1.00  0.00     0.000 C 
BRANCH  10  11
HETATM   11  C   UNL     1      -1.957  -8.017 -19.010  1.00  0.00     0.000 C 
BRANCH  11  12
HETATM   12  C   UNL     1      -2.927  -7.976 -17.824  1.00  0.00     0.000 C 
BRANCH  12  13
HETATM   13  C   UNL     1      -2.270  -7.335 -16.597  1.00  0.00     0.000 C 
BRANCH  13  14
HETATM   14  C   UNL     1      -2.876  -7.882 -15.299  1.00  0.00     0.000 C 
BRANCH  14  15
HETATM   15  C   UNL     1      -1.961  -7.598 -14.101  1.00  0.00     0.000 C 
BRANCH  15  16
HETATM   16  C   UNL     1      -2.295  -8.520 -12.923  1.00  0.00     0.000 C 
BRANCH  16  17
HETATM   17  C   UNL     1      -2.826  -7.717 -11.730  1.00  0.00    -0.000 C 
BRANCH  17  18
HETATM   18  C   UNL     1      -1.901  -7.859 -10.516  1.00  0.00    -0.005 C 
HETATM   19  C   UNL     1      -2.677  -7.708  -9.210  1.00  0.00     0.005 C 
ENDBRANCH  17  18
ENDBRANCH  16  17
ENDBRANCH  15  16
ENDBRANCH  14  15
ENDBRANCH  13  14
ENDBRANCH  12  13
ENDBRANCH  11  12
ENDBRANCH  10  11
ENDBRANCH   9  10
ENDBRANCH   8   9
ENDBRANCH   7   8
ENDBRANCH   6   7
ENDBRANCH   5   6
ENDBRANCH   3   5
ENDBRANCH   1   3
TORSDOF 15
ENDMDL
MODEL 5
REMARK VINA RESULT:      -5.0     14.147     17.388
REMARK  15 active torsions:
REMARK  status: ('A' for Active; 'I' for Inactive)
REMARK    1  A    between atoms: O_1  and  C_18 
REMARK    2  A    between atoms: C_3  and  C_4 
REMARK    3  A    between atoms: C_3  and  C_5 
REMARK    4  A    between atoms: C_4  and  C_6 
REMARK    5  A    between atoms: C_5  and  C_7 
REMARK    6  A    between atoms: C_6  and  C_8 
REMARK    7  A    between atoms: C_7  and  C_9 
REMARK    8  A    between atoms: C_8  and  C_10 
REMARK    9  A    between atoms: C_9  and  C_11 
REMARK   10  A    between atoms: C_10  and  C_12 
REMARK   11  A    between atoms: C_11  and  C_13 
REMARK   12  A    between atoms: C_12  and  C_14 
REMARK   13  A    between atoms: C_13  and  C_15 
REMARK   14  A    between atoms: C_14  and  C_16 
REMARK   15  A    between atoms: C_16  and  C_18 
ROOT
HETATM    1  O   UNL     1      -9.164   4.239  -5.344  1.00  0.00    -0.776 OA
HETATM    2  H   UNL     1      -8.378   4.101  -4.797  1.00  0.00     0.167 HD
ENDROOT
BRANCH   1   3
HETATM    3  C   UNL     1      -9.087   4.274  -6.691  1.00  0.00     0.139 C 
HETATM    4  O   UNL     1      -8.021   4.534  -7.231  1.00  0.00    -0.650 OA
BRANCH   3   5
HETATM    5  C   UNL     1     -10.325   3.990  -7.501  1.00  0.00     0.110 C 
BRANCH   5   6
HETATM    6  C   UNL     1     -10.282   4.610  -8.906  1.00  0.00     0.010 C 
BRANCH   6   7
HETATM    7  C   UNL     1      -9.860   3.572  -9.952  1.00  0.00     0.001 C 
BRANCH   7   8
HETATM    8  C   UNL     1      -8.573   4.003 -10.666  1.00  0.00     0.000 C 
BRANCH   8   9
HETATM    9  C   UNL     1      -8.880   4.591 -12.049  1.00  0.00     0.000 C 
BRANCH   9  10
HETATM   10  C   UNL     1     -10.289   4.203 -12.511  1.00  0.00     0.000 C 
BRANCH  10  11
HETATM   11  C   UNL     1     -10.382   4.189 -14.042  1.00  0.00     0.000 C 
BRANCH  11  12
HETATM   12  C   UNL     1      -9.106   3.612 -14.666  1.00  0.00     0.000 C 
BRANCH  12  13
HETATM   13  C   UNL     1      -8.392   4.658 -15.528  1.00  0.00     0.000 C 
BRANCH  13  14
HETATM   14  C   UNL     1      -8.573   4.357 -17.021  1.00  0.00     0.000 C 
BRANCH  14  15
HETATM   15  C   UNL     1     -10.010   3.913 -17.324  1.00  0.00     0.000 C 
BRANCH  15  16
HETATM   16  C   UNL     1     -10.478   4.452 -18.680  1.00  0.00     0.000 C 
BRANCH  16  17
HETATM   17  C   UNL     1     -10.049   3.520 -19.820  1.00  0.00    -0.000 C 
BRANCH  17  18
HETATM   18  C   UNL     1      -9.717   4.317 -21.086  1.00  0.00    -0.005 C 
HETATM   19  C   UNL     1      -8.247   4.728 -21.109  1.00  0.00     0.005 C 
ENDBRANCH  17  18
ENDBRANCH  16  17
ENDBRANCH  15  16
ENDBRANCH  14  15
ENDBRANCH  13  14
ENDBRANCH  12  13
ENDBRANCH  11  12
ENDBRANCH  10  11
ENDBRANCH   9  10
ENDBRANCH   8   9
ENDBRANCH   7   8
ENDBRANCH   6   7
ENDBRANCH   5   6
ENDBRANCH   3   5
ENDBRANCH   1   3
TORSDOF 15
ENDMDL
MODEL 6
REMARK VINA RESULT:      -4.9      4.188     10.687
REMARK  15 active torsions:
REMARK  status: ('A' for Active; 'I' for Inactive)
REMARK    1  A    between atoms: O_1  and  C_18 
REMARK    2  A    between atoms: C_3  and  C_4 
REMARK    3  A    between atoms: C_3  and  C_5 
REMARK    4  A    between atoms: C_4  and  C_6 
REMARK    5  A    between atoms: C_5  and  C_7 
REMARK    6  A    between atoms: C_6  and  C_8 
REMARK    7  A    between atoms: C_7  and  C_9 
REMARK    8  A    between atoms: C_8  and  C_10 
REMARK    9  A    between atoms: C_9  and  C_11 
REMARK   10  A    between atoms: C_10  and  C_12 
REMARK   11  A    between atoms: C_11  and  C_13 
REMARK   12  A    between atoms: C_12  and  C_14 
REMARK   13  A    between atoms: C_13  and  C_15 
REMARK   14  A    between atoms: C_14  and  C_16 
REMARK   15  A    between atoms: C_16  and  C_18 
ROOT
HETATM    1  O   UNL     1      -1.588  -6.803  -8.650  1.00  0.00    -0.776 OA
HETATM    2  H   UNL     1      -1.447  -7.003  -7.714  1.00  0.00     0.167 HD
ENDROOT
BRANCH   1   3
HETATM    3  C   UNL     1      -2.185  -7.688  -9.477  1.00  0.00     0.139 C 
HETATM    4  O   UNL     1      -1.514  -8.304 -10.293  1.00  0.00    -0.650 OA
BRANCH   3   5
HETATM    5  C   UNL     1      -3.674  -7.896  -9.373  1.00  0.00     0.110 C 
BRANCH   5   6
HETATM    6  C   UNL     1      -4.441  -7.391 -10.605  1.00  0.00     0.010 C 
BRANCH   6   7
HETATM    7  C   UNL     1      -5.336  -8.492 -11.183  1.00  0.00     0.001 C 
BRANCH   7   8
HETATM    8  C   UNL     1      -5.153  -8.609 -12.702  1.00  0.00     0.000 C 
BRANCH   8   9
HETATM    9  C   UNL     1      -3.705  -8.305 -13.106  1.00  0.00     0.000 C 
BRANCH   9  10
HETATM   10  C   UNL     1      -3.654  -7.555 -14.443  1.00  0.00     0.000 C 
BRANCH  10  11
HETATM   11  C   UNL     1      -2.205  -7.286 -14.867  1.00  0.00     0.000 C 
BRANCH  11  12
HETATM   12  C   UNL     1      -2.098  -7.120 -16.387  1.00  0.00     0.000 C 
BRANCH  12  13
HETATM   13  C   UNL     1      -2.137  -8.479 -17.094  1.00  0.00     0.000 C 
BRANCH  13  14
HETATM   14  C   UNL     1      -2.091  -8.308 -18.618  1.00  0.00     0.000 C 
BRANCH  14  15
HETATM   15  C   UNL     1      -3.471  -7.934 -19.172  1.00  0.00     0.000 C 
BRANCH  15  16
HETATM   16  C   UNL     1      -3.344  -7.133 -20.472  1.00  0.00     0.000 C 
BRANCH  16  17
HETATM   17  C   UNL     1      -2.136  -7.602 -21.292  1.00  0.00    -0.000 C 
BRANCH  17  18
HETATM   18  C   UNL     1      -2.583  -8.383 -22.533  1.00  0.00    -0.005 C 
HETATM   19  C   UNL     1      -2.216  -7.638 -23.814  1.00  0.00     0.005 C 
ENDBRANCH  17  18
ENDBRANCH  16  17
ENDBRANCH  15  16
ENDBRANCH  14  15
ENDBRANCH  13  14
ENDBRANCH  12  13
ENDBRANCH  11  12
ENDBRANCH  10  11
ENDBRANCH   9  10
ENDBRANCH   8   9
ENDBRANCH   7   8
ENDBRANCH   6   7
ENDBRANCH   5   6
ENDBRANCH   3   5
ENDBRANCH   1   3
TORSDOF 15
ENDMDL
MODEL 7
REMARK VINA RESULT:      -4.7      2.060      3.039
REMARK  15 active torsions:
REMARK  status: ('A' for Active; 'I' for Inactive)
REMARK    1  A    between atoms: O_1  and  C_18 
REMARK    2  A    between atoms: C_3  and  C_4 
REMARK    3  A    between atoms: C_3  and  C_5 
REMARK    4  A    between atoms: C_4  and  C_6 
REMARK    5  A    between atoms: C_5  and  C_7 
REMARK    6  A    between atoms: C_6  and  C_8 
REMARK    7  A    between atoms: C_7  and  C_9 
REMARK    8  A    between atoms: C_8  and  C_10 
REMARK    9  A    between atoms: C_9  and  C_11 
REMARK   10  A    between atoms: C_10  and  C_12 
REMARK   11  A    between atoms: C_11  and  C_13 
REMARK   12  A    between atoms: C_12  and  C_14 
REMARK   13  A    between atoms: C_13  and  C_15 
REMARK   14  A    between atoms: C_14  and  C_16 
REMARK   15  A    between atoms: C_16  and  C_18 
ROOT
HETATM    1  O   UNL     1      -1.054  -6.331 -19.319  1.00  0.00    -0.776 OA
HETATM    2  H   UNL     1      -0.399  -5.699 -19.647  1.00  0.00     0.167 HD
ENDROOT
BRANCH   1   3
HETATM    3  C   UNL     1      -1.947  -6.913 -20.148  1.00  0.00     0.139 C 
HETATM    4  O   UNL     1      -1.862  -6.734 -21.354  1.00  0.00    -0.650 OA
BRANCH   3   5
HETATM    5  C   UNL     1      -3.035  -7.774 -19.561  1.00  0.00     0.110 C 
BRANCH   5   6
HETATM    6  C   UNL     1      -2.619  -8.461 -18.250  1.00  0.00     0.010 C 
BRANCH   6   7
HETATM    7  C   UNL     1      -3.347  -7.843 -17.051  1.00  0.00     0.001 C 
BRANCH   7   8
HETATM    8  C   UNL     1      -2.362  -7.125 -16.120  1.00  0.00     0.000 C 
BRANCH   8   9
HETATM    9  C   UNL     1      -1.700  -8.113 -15.153  1.00  0.00     0.000 C 
BRANCH   9  10
HETATM   10  C   UNL     1      -1.930  -7.695 -13.696  1.00  0.00     0.000 C 
BRANCH  10  11
HETATM   11  C   UNL     1      -2.995  -8.575 -13.032  1.00  0.00     0.000 C 
BRANCH  11  12
HETATM   12  C   UNL     1      -4.339  -7.841 -12.942  1.00  0.00     0.000 C 
BRANCH  12  13
HETATM   13  C   UNL     1      -5.454  -8.789 -12.488  1.00  0.00     0.000 C 
BRANCH  13  14
HETATM   14  C   UNL     1      -5.655  -8.715 -10.969  1.00  0.00     0.000 C 
BRANCH  14  15
HETATM   15  C   UNL     1      -4.636  -7.768 -10.324  1.00  0.00     0.000 C 
BRANCH  15  16
HETATM   16  C   UNL     1      -4.359  -8.166  -8.870  1.00  0.00     0.000 C 
BRANCH  16  17
HETATM   17  C   UNL     1      -2.860  -8.096  -8.556  1.00  0.00    -0.000 C 
BRANCH  17  18
HETATM   18  C   UNL     1      -2.040  -7.876  -9.833  1.00  0.00    -0.005 C 
HETATM   19  C   UNL     1      -1.649  -6.409  -9.990  1.00  0.00     0.005 C 
ENDBRANCH  17  18
ENDBRANCH  16  17
ENDBRANCH  15  16
ENDBRANCH  14  15
ENDBRANCH  13  14
ENDBRANCH  12  13
ENDBRANCH  11  12
ENDBRANCH  10  11
ENDBRANCH   9  10
ENDBRANCH   8   9
ENDBRANCH   7   8
ENDBRANCH   6   7
ENDBRANCH   5   6
ENDBRANCH   3   5
ENDBRANCH   1   3
TORSDOF 15
ENDMDL
MODEL 8
REMARK VINA RESULT:      -4.7      3.031      6.116
REMARK  15 active torsions:
REMARK  status: ('A' for Active; 'I' for Inactive)
REMARK    1  A    between atoms: O_1  and  C_18 
REMARK    2  A    between atoms: C_3  and  C_4 
REMARK    3  A    between atoms: C_3  and  C_5 
REMARK    4  A    between atoms: C_4  and  C_6 
REMARK    5  A    between atoms: C_5  and  C_7 
REMARK    6  A    between atoms: C_6  and  C_8 
REMARK    7  A    between atoms: C_7  and  C_9 
REMARK    8  A    between atoms: C_8  and  C_10 
REMARK    9  A    between atoms: C_9  and  C_11 
REMARK   10  A    between atoms: C_10  and  C_12 
REMARK   11  A    between atoms: C_11  and  C_13 
REMARK   12  A    between atoms: C_12  and  C_14 
REMARK   13  A    between atoms: C_13  and  C_15 
REMARK   14  A    between atoms: C_14  and  C_16 
REMARK   15  A    between atoms: C_16  and  C_18 
ROOT
HETATM    1  O   UNL     1      -1.275  -6.958 -14.271  1.00  0.00    -0.776 OA
HETATM    2  H   UNL     1      -1.352  -6.182 -14.843  1.00  0.00     0.167 HD
ENDROOT
BRANCH   1   3
HETATM    3  C   UNL     1      -2.367  -7.585 -13.785  1.00  0.00     0.139 C 
HETATM    4  O   UNL     1      -3.354  -7.723 -14.494  1.00  0.00    -0.650 OA
BRANCH   3   5
HETATM    5  C   UNL     1      -2.342  -8.106 -12.371  1.00  0.00     0.110 C 
BRANCH   5   6
HETATM    6  C   UNL     1      -1.989  -7.025 -11.337  1.00  0.00     0.010 C 
BRANCH   6   7
HETATM    7  C   UNL     1      -2.051  -7.587  -9.913  1.00  0.00     0.001 C 
BRANCH   7   8
HETATM    8  C   UNL     1      -3.496  -7.632  -9.402  1.00  0.00     0.000 C 
BRANCH   8   9
HETATM    9  C   UNL     1      -3.619  -8.547  -8.177  1.00  0.00     0.000 C 
BRANCH   9  10
HETATM   10  C   UNL     1      -3.506  -7.744  -6.877  1.00  0.00     0.000 C 
BRANCH  10  11
HETATM   11  C   UNL     1      -2.073  -7.779  -6.332  1.00  0.00     0.000 C 
BRANCH  11  12
HETATM   12  C   UNL     1      -2.015  -7.241  -4.897  1.00  0.00     0.000 C 
BRANCH  12  13
HETATM   13  C   UNL     1      -2.221  -8.367  -3.878  1.00  0.00     0.000 C 
BRANCH  13  14
HETATM   14  C   UNL     1      -3.355  -8.026  -2.904  1.00  0.00     0.000 C 
BRANCH  14  15
HETATM   15  C   UNL     1      -3.174  -8.761  -1.570  1.00  0.00     0.000 C 
BRANCH  15  16
HETATM   16  C   UNL     1      -4.449  -8.683  -0.722  1.00  0.00     0.000 C 
BRANCH  16  17
HETATM   17  C   UNL     1      -5.293  -9.954  -0.879  1.00  0.00    -0.000 C 
BRANCH  17  18
HETATM   18  C   UNL     1      -4.633 -10.935  -1.856  1.00  0.00    -0.005 C 
HETATM   19  C   UNL     1      -3.878 -12.031  -1.110  1.00  0.00     0.005 C 
ENDBRANCH  17  18
ENDBRANCH  16  17
ENDBRANCH  15  16
ENDBRANCH  14  15
ENDBRANCH  13  14
ENDBRANCH  12  13
ENDBRANCH  11  12
ENDBRANCH  10  11
ENDBRANCH   9  10
ENDBRANCH   8   9
ENDBRANCH   7   8
ENDBRANCH   6   7
ENDBRANCH   5   6
ENDBRANCH   3   5
ENDBRANCH   1   3
TORSDOF 15
ENDMDL
MODEL 9
REMARK VINA RESULT:      -4.7     33.644     35.817
REMARK  15 active torsions:
REMARK  status: ('A' for Active; 'I' for Inactive)
REMARK    1  A    between atoms: O_1  and  C_18 
REMARK    2  A    between atoms: C_3  and  C_4 
REMARK    3  A    between atoms: C_3  and  C_5 
REMARK    4  A    between atoms: C_4  and  C_6 
REMARK    5  A    between atoms: C_5  and  C_7 
REMARK    6  A    between atoms: C_6  and  C_8 
REMARK    7  A    between atoms: C_7  and  C_9 
REMARK    8  A    between atoms: C_8  and  C_10 
REMARK    9  A    between atoms: C_9  and  C_11 
REMARK   10  A    between atoms: C_10  and  C_12 
REMARK   11  A    between atoms: C_11  and  C_13 
REMARK   12  A    between atoms: C_12  and  C_14 
REMARK   13  A    between atoms: C_13  and  C_15 
REMARK   14  A    between atoms: C_14  and  C_16 
REMARK   15  A    between atoms: C_16  and  C_18 
ROOT
HETATM    1  O   UNL     1     -37.617  -4.124 -14.345  1.00  0.00    -0.776 OA
HETATM    2  H   UNL     1     -38.431  -4.056 -13.825  1.00  0.00     0.167 HD
ENDROOT
BRANCH   1   3
HETATM    3  C   UNL     1     -37.610  -4.690 -15.570  1.00  0.00     0.139 C 
HETATM    4  O   UNL     1     -37.786  -3.996 -16.561  1.00  0.00    -0.650 OA
BRANCH   3   5
HETATM    5  C   UNL     1     -37.383  -6.175 -15.687  1.00  0.00     0.110 C 
BRANCH   5   6
HETATM    6  C   UNL     1     -36.125  -6.653 -14.944  1.00  0.00     0.010 C 
BRANCH   6   7
HETATM    7  C   UNL     1     -35.203  -7.445 -15.877  1.00  0.00     0.001 C 
BRANCH   7   8
HETATM    8  C   UNL     1     -35.622  -7.271 -17.342  1.00  0.00     0.000 C 
BRANCH   8   9
HETATM    9  C   UNL     1     -34.516  -7.749 -18.292  1.00  0.00     0.000 C 
BRANCH   9  10
HETATM   10  C   UNL     1     -34.944  -9.018 -19.038  1.00  0.00     0.000 C 
BRANCH  10  11
HETATM   11  C   UNL     1     -34.850  -8.822 -20.556  1.00  0.00     0.000 C 
BRANCH  11  12
HETATM   12  C   UNL     1     -34.912  -7.335 -20.924  1.00  0.00     0.000 C 
BRANCH  12  13
HETATM   13  C   UNL     1     -35.804  -7.107 -22.149  1.00  0.00     0.000 C 
BRANCH  13  14
HETATM   14  C   UNL     1     -36.979  -6.182 -21.810  1.00  0.00     0.000 C 
BRANCH  14  15
HETATM   15  C   UNL     1     -36.836  -5.606 -20.396  1.00  0.00     0.000 C 
BRANCH  15  16
HETATM   16  C   UNL     1     -38.131  -5.785 -19.595  1.00  0.00     0.000 C 
BRANCH  16  17
HETATM   17  C   UNL     1     -38.470  -7.271 -19.422  1.00  0.00    -0.000 C 
BRANCH  17  18
HETATM   18  C   UNL     1     -39.896  -7.569 -19.900  1.00  0.00    -0.005 C 
HETATM   19  C   UNL     1     -39.886  -8.449 -21.146  1.00  0.00     0.005 C 
ENDBRANCH  17  18
ENDBRANCH  16  17
ENDBRANCH  15  16
ENDBRANCH  14  15
ENDBRANCH  13  14
ENDBRANCH  12  13
ENDBRANCH  11  12
ENDBRANCH  10  11
ENDBRANCH   9  10
ENDBRANCH   8   9
ENDBRANCH   7   8
ENDBRANCH   6   7
ENDBRANCH   5   6
ENDBRANCH   3   5
ENDBRANCH   1   3
TORSDOF 15
ENDMDL
MODEL 10
REMARK VINA RESULT:      -4.6     34.067     36.224
REMARK  15 active torsions:
REMARK  status: ('A' for Active; 'I' for Inactive)
REMARK    1  A    between atoms: O_1  and  C_18 
REMARK    2  A    between atoms: C_3  and  C_4 
REMARK    3  A    between atoms: C_3  and  C_5 
REMARK    4  A    between atoms: C_4  and  C_6 
REMARK    5  A    between atoms: C_5  and  C_7 
REMARK    6  A    between atoms: C_6  and  C_8 
REMARK    7  A    between atoms: C_7  and  C_9 
REMARK    8  A    between atoms: C_8  and  C_10 
REMARK    9  A    between atoms: C_9  and  C_11 
REMARK   10  A    between atoms: C_10  and  C_12 
REMARK   11  A    between atoms: C_11  and  C_13 
REMARK   12  A    between atoms: C_12  and  C_14 
REMARK   13  A    between atoms: C_13  and  C_15 
REMARK   14  A    between atoms: C_14  and  C_16 
REMARK   15  A    between atoms: C_16  and  C_18 
ROOT
HETATM    1  O   UNL     1     -37.058  -3.448 -10.653  1.00  0.00    -0.776 OA
HETATM    2  H   UNL     1     -36.937  -3.564  -9.701  1.00  0.00     0.167 HD
ENDROOT
BRANCH   1   3
HETATM    3  C   UNL     1     -37.627  -4.408 -11.413  1.00  0.00     0.139 C 
HETATM    4  O   UNL     1     -37.800  -4.213 -12.608  1.00  0.00    -0.650 OA
BRANCH   3   5
HETATM    5  C   UNL     1     -38.037  -5.705 -10.765  1.00  0.00     0.110 C 
BRANCH   5   6
HETATM    6  C   UNL     1     -37.441  -6.940 -11.458  1.00  0.00     0.010 C 
BRANCH   6   7
HETATM    7  C   UNL     1     -35.915  -6.836 -11.549  1.00  0.00     0.001 C 
BRANCH   7   8
HETATM    8  C   UNL     1     -35.400  -7.437 -12.863  1.00  0.00     0.000 C 
BRANCH   8   9
HETATM    9  C   UNL     1     -36.554  -7.699 -13.839  1.00  0.00     0.000 C 
BRANCH   9  10
HETATM   10  C   UNL     1     -36.068  -7.652 -15.291  1.00  0.00     0.000 C 
BRANCH  10  11
HETATM   11  C   UNL     1     -35.920  -6.204 -15.775  1.00  0.00     0.000 C 
BRANCH  11  12
HETATM   12  C   UNL     1     -37.286  -5.519 -15.891  1.00  0.00     0.000 C 
BRANCH  12  13
HETATM   13  C   UNL     1     -37.526  -5.004 -17.315  1.00  0.00     0.000 C 
BRANCH  13  14
HETATM   14  C   UNL     1     -37.948  -6.146 -18.248  1.00  0.00     0.000 C 
BRANCH  14  15
HETATM   15  C   UNL     1     -36.952  -6.309 -19.403  1.00  0.00     0.000 C 
BRANCH  15  16
HETATM   16  C   UNL     1     -37.495  -5.677 -20.690  1.00  0.00     0.000 C 
BRANCH  16  17
HETATM   17  C   UNL     1     -36.705  -6.156 -21.914  1.00  0.00    -0.000 C 
BRANCH  17  18
HETATM   18  C   UNL     1     -37.608  -6.251 -23.149  1.00  0.00    -0.005 C 
HETATM   19  C   UNL     1     -37.737  -4.897 -23.842  1.00  0.00     0.005 C 
ENDBRANCH  17  18
ENDBRANCH  16  17
ENDBRANCH  15  16
ENDBRANCH  14  15
ENDBRANCH  13  14
ENDBRANCH  12  13
ENDBRANCH  11  12
ENDBRANCH  10  11
ENDBRANCH   9  10
ENDBRANCH   8   9
ENDBRANCH   7   8
ENDBRANCH   6   7
ENDBRANCH   5   6
ENDBRANCH   3   5
ENDBRANCH   1   3
TORSDOF 15
ENDMDL
MODEL 11
REMARK VINA RESULT:      -4.6     33.708     35.323
REMARK  15 active torsions:
REMARK  status: ('A' for Active; 'I' for Inactive)
REMARK    1  A    between atoms: O_1  and  C_18 
REMARK    2  A    between atoms: C_3  and  C_4 
REMARK    3  A    between atoms: C_3  and  C_5 
REMARK    4  A    between atoms: C_4  and  C_6 
REMARK    5  A    between atoms: C_5  and  C_7 
REMARK    6  A    between atoms: C_6  and  C_8 
REMARK    7  A    between atoms: C_7  and  C_9 
REMARK    8  A    between atoms: C_8  and  C_10 
REMARK    9  A    between atoms: C_9  and  C_11 
REMARK   10  A    between atoms: C_10  and  C_12 
REMARK   11  A    between atoms: C_11  and  C_13 
REMARK   12  A    between atoms: C_12  and  C_14 
REMARK   13  A    between atoms: C_13  and  C_15 
REMARK   14  A    between atoms: C_14  and  C_16 
REMARK   15  A    between atoms: C_16  and  C_18 
ROOT
HETATM    1  O   UNL     1     -36.496  -7.824  -9.256  1.00  0.00    -0.776 OA
HETATM    2  H   UNL     1     -36.317  -7.843 -10.206  1.00  0.00     0.167 HD
ENDROOT
BRANCH   1   3
HETATM    3  C   UNL     1     -37.030  -6.736  -8.662  1.00  0.00     0.139 C 
HETATM    4  O   UNL     1     -36.733  -6.467  -7.506  1.00  0.00    -0.650 OA
BRANCH   3   5
HETATM    5  C   UNL     1     -37.986  -5.872  -9.444  1.00  0.00     0.110 C 
BRANCH   5   6
HETATM    6  C   UNL     1     -37.317  -4.629 -10.050  1.00  0.00     0.010 C 
BRANCH   6   7
HETATM    7  C   UNL     1     -37.544  -4.567 -11.565  1.00  0.00     0.001 C 
BRANCH   7   8
HETATM    8  C   UNL     1     -37.940  -5.941 -12.119  1.00  0.00     0.000 C 
BRANCH   8   9
HETATM    9  C   UNL     1     -36.731  -6.657 -12.732  1.00  0.00     0.000 C 
BRANCH   9  10
HETATM   10  C   UNL     1     -36.903  -8.179 -12.671  1.00  0.00     0.000 C 
BRANCH  10  11
HETATM   11  C   UNL     1     -35.698  -8.894 -13.295  1.00  0.00     0.000 C 
BRANCH  11  12
HETATM   12  C   UNL     1     -34.699  -7.887 -13.875  1.00  0.00     0.000 C 
BRANCH  12  13
HETATM   13  C   UNL     1     -34.338  -8.241 -15.322  1.00  0.00     0.000 C 
BRANCH  13  14
HETATM   14  C   UNL     1     -34.571  -7.046 -16.255  1.00  0.00     0.000 C 
BRANCH  14  15
HETATM   15  C   UNL     1     -35.519  -7.420 -17.401  1.00  0.00     0.000 C 
BRANCH  15  16
HETATM   16  C   UNL     1     -36.721  -6.469 -17.452  1.00  0.00     0.000 C 
BRANCH  16  17
HETATM   17  C   UNL     1     -37.705  -6.764 -16.313  1.00  0.00    -0.000 C 
BRANCH  17  18
HETATM   18  C   UNL     1     -38.258  -5.466 -15.715  1.00  0.00    -0.005 C 
HETATM   19  C   UNL     1     -37.208  -4.359 -15.731  1.00  0.00     0.005 C 
ENDBRANCH  17  18
ENDBRANCH  16  17
ENDBRANCH  15  16
ENDBRANCH  14  15
ENDBRANCH  13  14
ENDBRANCH  12  13
ENDBRANCH  11  12
ENDBRANCH  10  11
ENDBRANCH   9  10
ENDBRANCH   8   9
ENDBRANCH   7   8
ENDBRANCH   6   7
ENDBRANCH   5   6
ENDBRANCH   3   5
ENDBRANCH   1   3
TORSDOF 15
ENDMDL
MODEL 12
REMARK VINA RESULT:      -4.5     34.667     36.445
REMARK  15 active torsions:
REMARK  status: ('A' for Active; 'I' for Inactive)
REMARK    1  A    between atoms: O_1  and  C_18 
REMARK    2  A    between atoms: C_3  and  C_4 
REMARK    3  A    between atoms: C_3  and  C_5 
REMARK    4  A    between atoms: C_4  and  C_6 
REMARK    5  A    between atoms: C_5  and  C_7 
REMARK    6  A    between atoms: C_6  and  C_8 
REMARK    7  A    between atoms: C_7  and  C_9 
REMARK    8  A    between atoms: C_8  and  C_10 
REMARK    9  A    between atoms: C_9  and  C_11 
REMARK   10  A    between atoms: C_10  and  C_12 
REMARK   11  A    between atoms: C_11  and  C_13 
REMARK   12  A    between atoms: C_12  and  C_14 
REMARK   13  A    between atoms: C_13  and  C_15 
REMARK   14  A    between atoms: C_14  and  C_16 
REMARK   15  A    between atoms: C_16  and  C_18 
ROOT
HETATM    1  O   UNL     1     -36.185  -8.479  -4.408  1.00  0.00    -0.776 OA
HETATM    2  H   UNL     1     -36.731  -8.658  -3.630  1.00  0.00     0.167 HD
ENDROOT
BRANCH   1   3
HETATM    3  C   UNL     1     -36.055  -7.231  -4.905  1.00  0.00     0.139 C 
HETATM    4  O   UNL     1     -35.192  -6.996  -5.739  1.00  0.00    -0.650 OA
BRANCH   3   5
HETATM    5  C   UNL     1     -36.985  -6.150  -4.418  1.00  0.00     0.110 C 
BRANCH   5   6
HETATM    6  C   UNL     1     -38.183  -5.918  -5.353  1.00  0.00     0.010 C 
BRANCH   6   7
HETATM    7  C   UNL     1     -38.084  -4.554  -6.044  1.00  0.00     0.001 C 
BRANCH   7   8
HETATM    8  C   UNL     1     -37.461  -4.688  -7.439  1.00  0.00     0.000 C 
BRANCH   8   9
HETATM    9  C   UNL     1     -37.825  -6.034  -8.078  1.00  0.00     0.000 C 
BRANCH   9  10
HETATM   10  C   UNL     1     -38.006  -5.892  -9.593  1.00  0.00     0.000 C 
BRANCH  10  11
HETATM   11  C   UNL     1     -37.662  -4.472 -10.058  1.00  0.00     0.000 C 
BRANCH  11  12
HETATM   12  C   UNL     1     -37.505  -4.414 -11.582  1.00  0.00     0.000 C 
BRANCH  12  13
HETATM   13  C   UNL     1     -37.215  -5.803 -12.160  1.00  0.00     0.000 C 
BRANCH  13  14
HETATM   14  C   UNL     1     -37.897  -5.988 -13.521  1.00  0.00     0.000 C 
BRANCH  14  15
HETATM   15  C   UNL     1     -37.672  -4.766 -14.420  1.00  0.00     0.000 C 
BRANCH  15  16
HETATM   16  C   UNL     1     -36.872  -5.144 -15.671  1.00  0.00     0.000 C 
BRANCH  16  17
HETATM   17  C   UNL     1     -37.794  -5.679 -16.773  1.00  0.00    -0.000 C 
BRANCH  17  18
HETATM   18  C   UNL     1     -37.230  -6.966 -17.386  1.00  0.00    -0.005 C 
HETATM   19  C   UNL     1     -36.624  -6.701 -18.762  1.00  0.00     0.005 C 
ENDBRANCH  17  18
ENDBRANCH  16  17
ENDBRANCH  15  16
ENDBRANCH  14  15
ENDBRANCH  13  14
ENDBRANCH  12  13
ENDBRANCH  11  12
ENDBRANCH  10  11
ENDBRANCH   9  10
ENDBRANCH   8   9
ENDBRANCH   7   8
ENDBRANCH   6   7
ENDBRANCH   5   6
ENDBRANCH   3   5
ENDBRANCH   1   3
TORSDOF 15
ENDMDL
MODEL 13
REMARK VINA RESULT:      -4.5     33.574     34.873
REMARK  15 active torsions:
REMARK  status: ('A' for Active; 'I' for Inactive)
REMARK    1  A    between atoms: O_1  and  C_18 
REMARK    2  A    between atoms: C_3  and  C_4 
REMARK    3  A    between atoms: C_3  and  C_5 
REMARK    4  A    between atoms: C_4  and  C_6 
REMARK    5  A    between atoms: C_5  and  C_7 
REMARK    6  A    between atoms: C_6  and  C_8 
REMARK    7  A    between atoms: C_7  and  C_9 
REMARK    8  A    between atoms: C_8  and  C_10 
REMARK    9  A    between atoms: C_9  and  C_11 
REMARK   10  A    between atoms: C_10  and  C_12 
REMARK   11  A    between atoms: C_11  and  C_13 
REMARK   12  A    between atoms: C_12  and  C_14 
REMARK   13  A    between atoms: C_13  and  C_15 
REMARK   14  A    between atoms: C_14  and  C_16 
REMARK   15  A    between atoms: C_16  and  C_18 
ROOT
HETATM    1  O   UNL     1     -33.386 -10.352  -8.870  1.00  0.00    -0.776 OA
HETATM    2  H   UNL     1     -32.739 -10.953  -9.268  1.00  0.00     0.167 HD
ENDROOT
BRANCH   1   3
HETATM    3  C   UNL     1     -34.224  -9.616  -9.631  1.00  0.00     0.139 C 
HETATM    4  O   UNL     1     -34.153  -9.681 -10.850  1.00  0.00    -0.650 OA
BRANCH   3   5
HETATM    5  C   UNL     1     -35.234  -8.727  -8.953  1.00  0.00     0.110 C 
BRANCH   5   6
HETATM    6  C   UNL     1     -35.062  -8.673  -7.427  1.00  0.00     0.010 C 
BRANCH   6   7
HETATM    7  C   UNL     1     -34.620  -7.278  -6.972  1.00  0.00     0.001 C 
BRANCH   7   8
HETATM    8  C   UNL     1     -35.450  -6.801  -5.774  1.00  0.00     0.000 C 
BRANCH   8   9
HETATM    9  C   UNL     1     -36.914  -6.578  -6.172  1.00  0.00     0.000 C 
BRANCH   9  10
HETATM   10  C   UNL     1     -37.226  -5.083  -6.303  1.00  0.00     0.000 C 
BRANCH  10  11
HETATM   11  C   UNL     1     -37.622  -4.727  -7.741  1.00  0.00     0.000 C 
BRANCH  11  12
HETATM   12  C   UNL     1     -37.643  -5.975  -8.631  1.00  0.00     0.000 C 
BRANCH  12  13
HETATM   13  C   UNL     1     -38.222  -5.656 -10.014  1.00  0.00     0.000 C 
BRANCH  13  14
HETATM   14  C   UNL     1     -37.356  -4.626 -10.749  1.00  0.00     0.000 C 
BRANCH  14  15
HETATM   15  C   UNL     1     -37.522  -4.750 -12.268  1.00  0.00     0.000 C 
BRANCH  15  16
HETATM   16  C   UNL     1     -37.889  -6.184 -12.666  1.00  0.00     0.000 C 
BRANCH  16  17
HETATM   17  C   UNL     1     -37.654  -6.418 -14.163  1.00  0.00    -0.000 C 
BRANCH  17  18
HETATM   18  C   UNL     1     -36.172  -6.682 -14.451  1.00  0.00    -0.005 C 
HETATM   19  C   UNL     1     -35.576  -7.651 -13.434  1.00  0.00     0.005 C 
ENDBRANCH  17  18
ENDBRANCH  16  17
ENDBRANCH  15  16
ENDBRANCH  14  15
ENDBRANCH  13  14
ENDBRANCH  12  13
ENDBRANCH  11  12
ENDBRANCH  10  11
ENDBRANCH   9  10
ENDBRANCH   8   9
ENDBRANCH   7   8
ENDBRANCH   6   7
ENDBRANCH   5   6
ENDBRANCH   3   5
ENDBRANCH   1   3
TORSDOF 15
ENDMDL
MODEL 14
REMARK VINA RESULT:      -4.5     57.673     59.222
REMARK  15 active torsions:
REMARK  status: ('A' for Active; 'I' for Inactive)
REMARK    1  A    between atoms: O_1  and  C_18 
REMARK    2  A    between atoms: C_3  and  C_4 
REMARK    3  A    between atoms: C_3  and  C_5 
REMARK    4  A    between atoms: C_4  and  C_6 
REMARK    5  A    between atoms: C_5  and  C_7 
REMARK    6  A    between atoms: C_6  and  C_8 
REMARK    7  A    between atoms: C_7  and  C_9 
REMARK    8  A    between atoms: C_8  and  C_10 
REMARK    9  A    between atoms: C_9  and  C_11 
REMARK   10  A    between atoms: C_10  and  C_12 
REMARK   11  A    between atoms: C_11  and  C_13 
REMARK   12  A    between atoms: C_12  and  C_14 
REMARK   13  A    between atoms: C_13  and  C_15 
REMARK   14  A    between atoms: C_14  and  C_16 
REMARK   15  A    between atoms: C_16  and  C_18 
ROOT
HETATM    1  O   UNL     1     -55.376  19.816 -12.741  1.00  0.00    -0.776 OA
HETATM    2  H   UNL     1     -55.058  18.902 -12.723  1.00  0.00     0.167 HD
ENDROOT
BRANCH   1   3
HETATM    3  C   UNL     1     -54.606  20.839 -12.312  1.00  0.00     0.139 C 
HETATM    4  O   UNL     1     -55.108  21.937 -12.120  1.00  0.00    -0.650 OA
BRANCH   3   5
HETATM    5  C   UNL     1     -53.137  20.599 -12.077  1.00  0.00     0.110 C 
BRANCH   5   6
HETATM    6  C   UNL     1     -52.249  21.144 -13.205  1.00  0.00     0.010 C 
BRANCH   6   7
HETATM    7  C   UNL     1     -52.233  20.188 -14.403  1.00  0.00     0.001 C 
BRANCH   7   8
HETATM    8  C   UNL     1     -52.382  20.957 -15.722  1.00  0.00     0.000 C 
BRANCH   8   9
HETATM    9  C   UNL     1     -53.850  21.307 -15.992  1.00  0.00     0.000 C 
BRANCH   9  10
HETATM   10  C   UNL     1     -53.967  22.619 -16.777  1.00  0.00     0.000 C 
BRANCH  10  11
HETATM   11  C   UNL     1     -52.659  22.940 -17.510  1.00  0.00     0.000 C 
BRANCH  11  12
HETATM   12  C   UNL     1     -52.908  23.174 -19.005  1.00  0.00     0.000 C 
BRANCH  12  13
HETATM   13  C   UNL     1     -51.954  22.333 -19.860  1.00  0.00     0.000 C 
BRANCH  13  14
HETATM   14  C   UNL     1     -51.820  20.912 -19.300  1.00  0.00     0.000 C 
BRANCH  14  15
HETATM   15  C   UNL     1     -52.456  19.885 -20.244  1.00  0.00     0.000 C 
BRANCH  15  16
HETATM   16  C   UNL     1     -52.791  20.519 -21.600  1.00  0.00     0.000 C 
BRANCH  16  17
HETATM   17  C   UNL     1     -52.414  19.581 -22.753  1.00  0.00    -0.000 C 
BRANCH  17  18
HETATM   18  C   UNL     1     -52.128  20.373 -24.034  1.00  0.00    -0.005 C 
HETATM   19  C   UNL     1     -51.778  21.825 -23.718  1.00  0.00     0.005 C 
ENDBRANCH  17  18
ENDBRANCH  16  17
ENDBRANCH  15  16
ENDBRANCH  14  15
ENDBRANCH  13  14
ENDBRANCH  12  13
ENDBRANCH  11  12
ENDBRANCH  10  11
ENDBRANCH   9  10
ENDBRANCH   8   9
ENDBRANCH   7   8
ENDBRANCH   6   7
ENDBRANCH   5   6
ENDBRANCH   3   5
ENDBRANCH   1   3
TORSDOF 15
ENDMDL
MODEL 15
REMARK VINA RESULT:      -4.5     33.426     35.515
REMARK  15 active torsions:
REMARK  status: ('A' for Active; 'I' for Inactive)
REMARK    1  A    between atoms: O_1  and  C_18 
REMARK    2  A    between atoms: C_3  and  C_4 
REMARK    3  A    between atoms: C_3  and  C_5 
REMARK    4  A    between atoms: C_4  and  C_6 
REMARK    5  A    between atoms: C_5  and  C_7 
REMARK    6  A    between atoms: C_6  and  C_8 
REMARK    7  A    between atoms: C_7  and  C_9 
REMARK    8  A    between atoms: C_8  and  C_10 
REMARK    9  A    between atoms: C_9  and  C_11 
REMARK   10  A    between atoms: C_10  and  C_12 
REMARK   11  A    between atoms: C_11  and  C_13 
REMARK   12  A    between atoms: C_12  and  C_14 
REMARK   13  A    between atoms: C_13  and  C_15 
REMARK   14  A    between atoms: C_14  and  C_16 
REMARK   15  A    between atoms: C_16  and  C_18 
ROOT
HETATM    1  O   UNL     1     -34.287  -7.833 -12.724  1.00  0.00    -0.776 OA
HETATM    2  H   UNL     1     -33.734  -8.595 -12.946  1.00  0.00     0.167 HD
ENDROOT
BRANCH   1   3
HETATM    3  C   UNL     1     -34.541  -7.496 -11.442  1.00  0.00     0.139 C 
HETATM    4  O   UNL     1     -33.624  -7.443 -10.635  1.00  0.00    -0.650 OA
BRANCH   3   5
HETATM    5  C   UNL     1     -35.959  -7.191 -11.034  1.00  0.00     0.110 C 
BRANCH   5   6
HETATM    6  C   UNL     1     -36.238  -5.686 -10.903  1.00  0.00     0.010 C 
BRANCH   6   7
HETATM    7  C   UNL     1     -37.325  -5.241 -11.888  1.00  0.00     0.001 C 
BRANCH   7   8
HETATM    8  C   UNL     1     -37.981  -6.451 -12.566  1.00  0.00     0.000 C 
BRANCH   8   9
HETATM    9  C   UNL     1     -38.042  -6.262 -14.087  1.00  0.00     0.000 C 
BRANCH   9  10
HETATM   10  C   UNL     1     -37.803  -4.798 -14.470  1.00  0.00     0.000 C 
BRANCH  10  11
HETATM   11  C   UNL     1     -36.937  -4.693 -15.732  1.00  0.00     0.000 C 
BRANCH  11  12
HETATM   12  C   UNL     1     -36.356  -6.059 -16.116  1.00  0.00     0.000 C 
BRANCH  12  13
HETATM   13  C   UNL     1     -36.830  -6.487 -17.509  1.00  0.00     0.000 C 
BRANCH  13  14
HETATM   14  C   UNL     1     -37.554  -5.338 -18.221  1.00  0.00     0.000 C 
BRANCH  14  15
HETATM   15  C   UNL     1     -38.356  -5.853 -19.422  1.00  0.00     0.000 C 
BRANCH  15  16
HETATM   16  C   UNL     1     -37.690  -7.087 -20.041  1.00  0.00     0.000 C 
BRANCH  16  17
HETATM   17  C   UNL     1     -36.988  -6.731 -21.357  1.00  0.00    -0.000 C 
BRANCH  17  18
HETATM   18  C   UNL     1     -35.504  -6.425 -21.124  1.00  0.00    -0.005 C 
HETATM   19  C   UNL     1     -34.635  -7.639 -21.439  1.00  0.00     0.005 C 
ENDBRANCH  17  18
ENDBRANCH  16  17
ENDBRANCH  15  16
ENDBRANCH  14  15
ENDBRANCH  13  14
ENDBRANCH  12  13
ENDBRANCH  11  12
ENDBRANCH  10  11
ENDBRANCH   9  10
ENDBRANCH   8   9
ENDBRANCH   7   8
ENDBRANCH   6   7
ENDBRANCH   5   6
ENDBRANCH   3   5
ENDBRANCH   1   3
TORSDOF 15
ENDMDL
MODEL 16
REMARK VINA RESULT:      -4.4     33.299     34.508
REMARK  15 active torsions:
REMARK  status: ('A' for Active; 'I' for Inactive)
REMARK    1  A    between atoms: O_1  and  C_18 
REMARK    2  A    between atoms: C_3  and  C_4 
REMARK    3  A    between atoms: C_3  and  C_5 
REMARK    4  A    between atoms: C_4  and  C_6 
REMARK    5  A    between atoms: C_5  and  C_7 
REMARK    6  A    between atoms: C_6  and  C_8 
REMARK    7  A    between atoms: C_7  and  C_9 
REMARK    8  A    between atoms: C_8  and  C_10 
REMARK    9  A    between atoms: C_9  and  C_11 
REMARK   10  A    between atoms: C_10  and  C_12 
REMARK   11  A    between atoms: C_11  and  C_13 
REMARK   12  A    between atoms: C_12  and  C_14 
REMARK   13  A    between atoms: C_13  and  C_15 
REMARK   14  A    between atoms: C_14  and  C_16 
REMARK   15  A    between atoms: C_16  and  C_18 
ROOT
HETATM    1  O   UNL     1     -38.605  -5.768 -20.051  1.00  0.00    -0.776 OA
HETATM    2  H   UNL     1     -38.758  -5.836 -21.004  1.00  0.00     0.167 HD
ENDROOT
BRANCH   1   3
HETATM    3  C   UNL     1     -37.380  -5.964 -19.519  1.00  0.00     0.139 C 
HETATM    4  O   UNL     1     -36.389  -5.891 -20.233  1.00  0.00    -0.650 OA
BRANCH   3   5
HETATM    5  C   UNL     1     -37.262  -6.268 -18.048  1.00  0.00     0.110 C 
BRANCH   5   6
HETATM    6  C   UNL     1     -36.061  -7.166 -17.713  1.00  0.00     0.010 C 
BRANCH   6   7
HETATM    7  C   UNL     1     -36.507  -8.414 -16.941  1.00  0.00     0.001 C 
BRANCH   7   8
HETATM    8  C   UNL     1     -35.410  -8.887 -15.980  1.00  0.00     0.000 C 
BRANCH   8   9
HETATM    9  C   UNL     1     -34.583  -7.703 -15.462  1.00  0.00     0.000 C 
BRANCH   9  10
HETATM   10  C   UNL     1     -34.171  -7.918 -14.001  1.00  0.00     0.000 C 
BRANCH  10  11
HETATM   11  C   UNL     1     -35.095  -8.929 -13.312  1.00  0.00     0.000 C 
BRANCH  11  12
HETATM   12  C   UNL     1     -35.438  -8.480 -11.887  1.00  0.00     0.000 C 
BRANCH  12  13
HETATM   13  C   UNL     1     -34.905  -7.070 -11.610  1.00  0.00     0.000 C 
BRANCH  13  14
HETATM   14  C   UNL     1     -35.946  -6.225 -10.866  1.00  0.00     0.000 C 
BRANCH  14  15
HETATM   15  C   UNL     1     -37.332  -6.366 -11.509  1.00  0.00     0.000 C 
BRANCH  15  16
HETATM   16  C   UNL     1     -37.509  -5.369 -12.659  1.00  0.00     0.000 C 
BRANCH  16  17
HETATM   17  C   UNL     1     -37.604  -6.096 -14.007  1.00  0.00    -0.000 C 
BRANCH  17  18
HETATM   18  C   UNL     1     -38.439  -7.375 -13.884  1.00  0.00    -0.005 C 
HETATM   19  C   UNL     1     -39.488  -7.456 -14.990  1.00  0.00     0.005 C 
ENDBRANCH  17  18
ENDBRANCH  16  17
ENDBRANCH  15  16
ENDBRANCH  14  15
ENDBRANCH  13  14
ENDBRANCH  12  13
ENDBRANCH  11  12
ENDBRANCH  10  11
ENDBRANCH   9  10
ENDBRANCH   8   9
ENDBRANCH   7   8
ENDBRANCH   6   7
ENDBRANCH   5   6
ENDBRANCH   3   5
ENDBRANCH   1   3
TORSDOF 15
ENDMDL
MODEL 17
REMARK VINA RESULT:      -4.4     34.265     34.937
REMARK  15 active torsions:
REMARK  status: ('A' for Active; 'I' for Inactive)
REMARK    1  A    between atoms: O_1  and  C_18 
REMARK    2  A    between atoms: C_3  and  C_4 
REMARK    3  A    between atoms: C_3  and  C_5 
REMARK    4  A    between atoms: C_4  and  C_6 
REMARK    5  A    between atoms: C_5  and  C_7 
REMARK    6  A    between atoms: C_6  and  C_8 
REMARK    7  A    between atoms: C_7  and  C_9 
REMARK    8  A    between atoms: C_8  and  C_10 
REMARK    9  A    between atoms: C_9  and  C_11 
REMARK   10  A    between atoms: C_10  and  C_12 
REMARK   11  A    between atoms: C_11  and  C_13 
REMARK   12  A    between atoms: C_12  and  C_14 
REMARK   13  A    between atoms: C_13  and  C_15 
REMARK   14  A    between atoms: C_14  and  C_16 
REMARK   15  A    between atoms: C_16  and  C_18 
ROOT
HETATM    1  O   UNL     1     -37.410  -3.519 -15.896  1.00  0.00    -0.776 OA
HETATM    2  H   UNL     1     -37.515  -2.607 -15.590  1.00  0.00     0.167 HD
ENDROOT
BRANCH   1   3
HETATM    3  C   UNL     1     -37.486  -4.561 -15.041  1.00  0.00     0.139 C 
HETATM    4  O   UNL     1     -37.642  -4.355 -13.846  1.00  0.00    -0.650 OA
BRANCH   3   5
HETATM    5  C   UNL     1     -37.378  -5.962 -15.585  1.00  0.00     0.110 C 
BRANCH   5   6
HETATM    6  C   UNL     1     -36.087  -6.676 -15.157  1.00  0.00     0.010 C 
BRANCH   6   7
HETATM    7  C   UNL     1     -36.369  -8.129 -14.760  1.00  0.00     0.001 C 
BRANCH   7   8
HETATM    8  C   UNL     1     -35.770  -8.450 -13.385  1.00  0.00     0.000 C 
BRANCH   8   9
HETATM    9  C   UNL     1     -35.512  -7.168 -12.584  1.00  0.00     0.000 C 
BRANCH   9  10
HETATM   10  C   UNL     1     -35.587  -7.437 -11.077  1.00  0.00     0.000 C 
BRANCH  10  11
HETATM   11  C   UNL     1     -37.026  -7.743 -10.644  1.00  0.00     0.000 C 
BRANCH  11  12
HETATM   12  C   UNL     1     -38.012  -6.747 -11.264  1.00  0.00     0.000 C 
BRANCH  12  13
HETATM   13  C   UNL     1     -38.607  -5.824 -10.195  1.00  0.00     0.000 C 
BRANCH  13  14
HETATM   14  C   UNL     1     -38.052  -6.161  -8.805  1.00  0.00     0.000 C 
BRANCH  14  15
HETATM   15  C   UNL     1     -37.232  -4.995  -8.242  1.00  0.00     0.000 C 
BRANCH  15  16
HETATM   16  C   UNL     1     -37.820  -4.499  -6.916  1.00  0.00     0.000 C 
BRANCH  16  17
HETATM   17  C   UNL     1     -37.813  -5.612  -5.860  1.00  0.00    -0.000 C 
BRANCH  17  18
HETATM   18  C   UNL     1     -37.485  -5.051  -4.472  1.00  0.00    -0.005 C 
HETATM   19  C   UNL     1     -37.840  -6.051  -3.376  1.00  0.00     0.005 C 
ENDBRANCH  17  18
ENDBRANCH  16  17
ENDBRANCH  15  16
ENDBRANCH  14  15
ENDBRANCH  13  14
ENDBRANCH  12  13
ENDBRANCH  11  12
ENDBRANCH  10  11
ENDBRANCH   9  10
ENDBRANCH   8   9
ENDBRANCH   7   8
ENDBRANCH   6   7
ENDBRANCH   5   6
ENDBRANCH   3   5
ENDBRANCH   1   3
TORSDOF 15
ENDMDL
MODEL 18
REMARK VINA RESULT:      -4.4     33.788     34.522
REMARK  15 active torsions:
REMARK  status: ('A' for Active; 'I' for Inactive)
REMARK    1  A    between atoms: O_1  and  C_18 
REMARK    2  A    between atoms: C_3  and  C_4 
REMARK    3  A    between atoms: C_3  and  C_5 
REMARK    4  A    between atoms: C_4  and  C_6 
REMARK    5  A    between atoms: C_5  and  C_7 
REMARK    6  A    between atoms: C_6  and  C_8 
REMARK    7  A    between atoms: C_7  and  C_9 
REMARK    8  A    between atoms: C_8  and  C_10 
REMARK    9  A    between atoms: C_9  and  C_11 
REMARK   10  A    between atoms: C_10  and  C_12 
REMARK   11  A    between atoms: C_11  and  C_13 
REMARK   12  A    between atoms: C_12  and  C_14 
REMARK   13  A    between atoms: C_13  and  C_15 
REMARK   14  A    between atoms: C_14  and  C_16 
REMARK   15  A    between atoms: C_16  and  C_18 
ROOT
HETATM    1  O   UNL     1     -37.887  -5.968 -16.171  1.00  0.00    -0.776 OA
HETATM    2  H   UNL     1     -37.134  -6.295 -16.682  1.00  0.00     0.167 HD
ENDROOT
BRANCH   1   3
HETATM    3  C   UNL     1     -37.718  -5.353 -14.982  1.00  0.00     0.139 C 
HETATM    4  O   UNL     1     -37.368  -4.182 -14.948  1.00  0.00    -0.650 OA
BRANCH   3   5
HETATM    5  C   UNL     1     -37.968  -6.130 -13.715  1.00  0.00     0.110 C 
BRANCH   5   6
HETATM    6  C   UNL     1     -36.682  -6.691 -13.089  1.00  0.00     0.010 C 
BRANCH   6   7
HETATM    7  C   UNL     1     -36.562  -6.278 -11.618  1.00  0.00     0.001 C 
BRANCH   7   8
HETATM    8  C   UNL     1     -37.647  -5.261 -11.242  1.00  0.00     0.000 C 
BRANCH   8   9
HETATM    9  C   UNL     1     -38.369  -5.677  -9.954  1.00  0.00     0.000 C 
BRANCH   9  10
HETATM   10  C   UNL     1     -37.369  -5.921  -8.818  1.00  0.00     0.000 C 
BRANCH  10  11
HETATM   11  C   UNL     1     -37.666  -5.014  -7.618  1.00  0.00     0.000 C 
BRANCH  11  12
HETATM   12  C   UNL     1     -37.932  -5.840  -6.354  1.00  0.00     0.000 C 
BRANCH  12  13
HETATM   13  C   UNL     1     -36.978  -7.037  -6.269  1.00  0.00     0.000 C 
BRANCH  13  14
HETATM   14  C   UNL     1     -35.645  -6.633  -5.627  1.00  0.00     0.000 C 
BRANCH  14  15
HETATM   15  C   UNL     1     -34.460  -7.206  -6.413  1.00  0.00     0.000 C 
BRANCH  15  16
HETATM   16  C   UNL     1     -34.931  -8.237  -7.445  1.00  0.00     0.000 C 
BRANCH  16  17
HETATM   17  C   UNL     1     -34.342  -7.940  -8.829  1.00  0.00    -0.000 C 
BRANCH  17  18
HETATM   18  C   UNL     1     -34.639  -9.080  -9.810  1.00  0.00    -0.005 C 
HETATM   19  C   UNL     1     -33.984 -10.382  -9.355  1.00  0.00     0.005 C 
ENDBRANCH  17  18
ENDBRANCH  16  17
ENDBRANCH  15  16
ENDBRANCH  14  15
ENDBRANCH  13  14
ENDBRANCH  12  13
ENDBRANCH  11  12
ENDBRANCH  10  11
ENDBRANCH   9  10
ENDBRANCH   8   9
ENDBRANCH   7   8
ENDBRANCH   6   7
ENDBRANCH   5   6
ENDBRANCH   3   5
ENDBRANCH   1   3
TORSDOF 15
ENDMDL
MODEL 19
REMARK VINA RESULT:      -4.3     34.382     36.123
REMARK  15 active torsions:
REMARK  status: ('A' for Active; 'I' for Inactive)
REMARK    1  A    between atoms: O_1  and  C_18 
REMARK    2  A    between atoms: C_3  and  C_4 
REMARK    3  A    between atoms: C_3  and  C_5 
REMARK    4  A    between atoms: C_4  and  C_6 
REMARK    5  A    between atoms: C_5  and  C_7 
REMARK    6  A    between atoms: C_6  and  C_8 
REMARK    7  A    between atoms: C_7  and  C_9 
REMARK    8  A    between atoms: C_8  and  C_10 
REMARK    9  A    between atoms: C_9  and  C_11 
REMARK   10  A    between atoms: C_10  and  C_12 
REMARK   11  A    between atoms: C_11  and  C_13 
REMARK   12  A    between atoms: C_12  and  C_14 
REMARK   13  A    between atoms: C_13  and  C_15 
REMARK   14  A    between atoms: C_14  and  C_16 
REMARK   15  A    between atoms: C_16  and  C_18 
ROOT
HETATM    1  O   UNL     1     -37.507  -3.314 -16.034  1.00  0.00    -0.776 OA
HETATM    2  H   UNL     1     -37.842  -2.495 -15.641  1.00  0.00     0.167 HD
ENDROOT
BRANCH   1   3
HETATM    3  C   UNL     1     -37.429  -4.457 -15.320  1.00  0.00     0.139 C 
HETATM    4  O   UNL     1     -37.574  -4.426 -14.106  1.00  0.00    -0.650 OA
BRANCH   3   5
HETATM    5  C   UNL     1     -37.165  -5.752 -16.043  1.00  0.00     0.110 C 
BRANCH   5   6
HETATM    6  C   UNL     1     -35.750  -6.300 -15.801  1.00  0.00     0.010 C 
BRANCH   6   7
HETATM    7  C   UNL     1     -35.733  -7.831 -15.878  1.00  0.00     0.001 C 
BRANCH   7   8
HETATM    8  C   UNL     1     -35.353  -8.446 -14.526  1.00  0.00     0.000 C 
BRANCH   8   9
HETATM    9  C   UNL     1     -35.634  -7.469 -13.378  1.00  0.00     0.000 C 
BRANCH   9  10
HETATM   10  C   UNL     1     -36.544  -8.108 -12.322  1.00  0.00     0.000 C 
BRANCH  10  11
HETATM   11  C   UNL     1     -37.789  -8.725 -12.970  1.00  0.00     0.000 C 
BRANCH  11  12
HETATM   12  C   UNL     1     -38.797  -7.641 -13.369  1.00  0.00     0.000 C 
BRANCH  12  13
HETATM   13  C   UNL     1     -39.844  -8.194 -14.343  1.00  0.00     0.000 C 
BRANCH  13  14
HETATM   14  C   UNL     1     -39.174  -8.913 -15.520  1.00  0.00     0.000 C 
BRANCH  14  15
HETATM   15  C   UNL     1     -39.686  -8.370 -16.860  1.00  0.00     0.000 C 
BRANCH  15  16
HETATM   16  C   UNL     1     -38.997  -9.070 -18.037  1.00  0.00     0.000 C 
BRANCH  16  17
HETATM   17  C   UNL     1     -38.026  -8.120 -18.749  1.00  0.00    -0.000 C 
BRANCH  17  18
HETATM   18  C   UNL     1     -38.754  -6.875 -19.267  1.00  0.00    -0.005 C 
HETATM   19  C   UNL     1     -37.776  -5.883 -19.890  1.00  0.00     0.005 C 
ENDBRANCH  17  18
ENDBRANCH  16  17
ENDBRANCH  15  16
ENDBRANCH  14  15
ENDBRANCH  13  14
ENDBRANCH  12  13
ENDBRANCH  11  12
ENDBRANCH  10  11
ENDBRANCH   9  10
ENDBRANCH   8   9
ENDBRANCH   7   8
ENDBRANCH   6   7
ENDBRANCH   5   6
ENDBRANCH   3   5
ENDBRANCH   1   3
TORSDOF 15
ENDMDL
MODEL 20
REMARK VINA RESULT:      -4.2     58.045     59.383
REMARK  15 active torsions:
REMARK  status: ('A' for Active; 'I' for Inactive)
REMARK    1  A    between atoms: O_1  and  C_18 
REMARK    2  A    between atoms: C_3  and  C_4 
REMARK    3  A    between atoms: C_3  and  C_5 
REMARK    4  A    between atoms: C_4  and  C_6 
REMARK    5  A    between atoms: C_5  and  C_7 
REMARK    6  A    between atoms: C_6  and  C_8 
REMARK    7  A    between atoms: C_7  and  C_9 
REMARK    8  A    between atoms: C_8  and  C_10 
REMARK    9  A    between atoms: C_9  and  C_11 
REMARK   10  A    between atoms: C_10  and  C_12 
REMARK   11  A    between atoms: C_11  and  C_13 
REMARK   12  A    between atoms: C_12  and  C_14 
REMARK   13  A    between atoms: C_13  and  C_15 
REMARK   14  A    between atoms: C_14  and  C_16 
REMARK   15  A    between atoms: C_16  and  C_18 
ROOT
HETATM    1  O   UNL     1     -53.671  19.124 -12.701  1.00  0.00    -0.776 OA
HETATM    2  H   UNL     1     -53.931  18.414 -12.098  1.00  0.00     0.167 HD
ENDROOT
BRANCH   1   3
HETATM    3  C   UNL     1     -54.486  20.173 -12.946  1.00  0.00     0.139 C 
HETATM    4  O   UNL     1     -55.673  20.098 -12.661  1.00  0.00    -0.650 OA
BRANCH   3   5
HETATM    5  C   UNL     1     -53.908  21.418 -13.567  1.00  0.00     0.110 C 
BRANCH   5   6
HETATM    6  C   UNL     1     -53.951  21.401 -15.103  1.00  0.00     0.010 C 
BRANCH   6   7
HETATM    7  C   UNL     1     -52.685  20.759 -15.681  1.00  0.00     0.001 C 
BRANCH   7   8
HETATM    8  C   UNL     1     -52.900  20.334 -17.139  1.00  0.00     0.000 C 
BRANCH   8   9
HETATM    9  C   UNL     1     -54.168  20.974 -17.718  1.00  0.00     0.000 C 
BRANCH   9  10
HETATM   10  C   UNL     1     -53.976  21.335 -19.195  1.00  0.00     0.000 C 
BRANCH  10  11
HETATM   11  C   UNL     1     -52.536  21.064 -19.645  1.00  0.00     0.000 C 
BRANCH  11  12
HETATM   12  C   UNL     1     -51.885  22.334 -20.205  1.00  0.00     0.000 C 
BRANCH  12  13
HETATM   13  C   UNL     1     -52.867  23.510 -20.187  1.00  0.00     0.000 C 
BRANCH  13  14
HETATM   14  C   UNL     1     -52.326  24.667 -19.337  1.00  0.00     0.000 C 
BRANCH  14  15
HETATM   15  C   UNL     1     -53.377  25.147 -18.328  1.00  0.00     0.000 C 
BRANCH  15  16
HETATM   16  C   UNL     1     -53.190  24.459 -16.971  1.00  0.00     0.000 C 
BRANCH  16  17
HETATM   17  C   UNL     1     -51.710  24.157 -16.706  1.00  0.00    -0.000 C 
BRANCH  17  18
HETATM   18  C   UNL     1     -51.372  24.328 -15.220  1.00  0.00    -0.005 C 
HETATM   19  C   UNL     1     -50.274  23.359 -14.790  1.00  0.00     0.005 C 
ENDBRANCH  17  18
ENDBRANCH  16  17
ENDBRANCH  15  16
ENDBRANCH  14  15
ENDBRANCH  13  14
ENDBRANCH  12  13
ENDBRANCH  11  12
ENDBRANCH  10  11
ENDBRANCH   9  10
ENDBRANCH   8   9
ENDBRANCH   7   8
ENDBRANCH   6   7
ENDBRANCH   5   6
ENDBRANCH   3   5
ENDBRANCH   1   3
TORSDOF 15
ENDMDL
