MODEL 1
REMARK VINA RESULT:      -4.0      0.000      0.000
REMARK  16 active torsions:
REMARK  status: ('A' for Active; 'I' for Inactive)
REMARK    1  A    between atoms: O_1  and  C_20 
REMARK    2  A    between atoms: C_3  and  C_4 
REMARK    3  A    between atoms: C_3  and  C_5 
REMARK    4  A    between atoms: C_4  and  C_8 
REMARK    5  A    between atoms: C_5  and  C_11 
REMARK    6  A    between atoms: C_6  and  C_7 
REMARK    7  A    between atoms: C_6  and  C_9 
REMARK    8  A    between atoms: C_7  and  C_10 
REMARK    9  A    between atoms: C_8  and  C_12 
REMARK   10  A    between atoms: C_9  and  C_13 
REMARK   11  A    between atoms: C_10  and  C_14 
REMARK   12  A    between atoms: C_11  and  C_15 
REMARK   13  A    between atoms: C_12  and  C_16 
REMARK   14  A    between atoms: C_13  and  C_17 
REMARK   15  A    between atoms: C_14  and  C_18 
REMARK   16  A    between atoms: C_18  and  C_20 
ROOT
HETATM    1  O   UNL     1      28.262  12.103 -20.040  1.00  0.00    -0.776 OA
HETATM    2  H   UNL     1      27.349  12.415 -19.961  1.00  0.00     0.167 HD
ENDROOT
BRANCH   1   3
HETATM    3  C   UNL     1      28.678  10.978 -19.422  1.00  0.00     0.139 C 
HETATM    4  O   UNL     1      28.247   9.892 -19.785  1.00  0.00    -0.650 OA
BRANCH   3   5
HETATM    5  C   UNL     1      29.669  11.087 -18.293  1.00  0.00     0.110 C 
BRANCH   5   6
HETATM    6  C   UNL     1      31.128  11.067 -18.768  1.00  0.00     0.010 C 
BRANCH   6   7
HETATM    7  C   UNL     1      31.673   9.634 -18.813  1.00  0.00     0.001 C 
BRANCH   7   8
HETATM    8  C   UNL     1      32.882   9.537 -19.749  1.00  0.00     0.000 C 
BRANCH   8   9
HETATM    9  C   UNL     1      33.834   8.420 -19.306  1.00  0.00     0.000 C 
BRANCH   9  10
HETATM   10  C   UNL     1      34.422   7.694 -20.521  1.00  0.00     0.004 C 
BRANCH  10  11
HETATM   11  C   UNL     1      33.963   8.338 -21.832  1.00  0.00     0.027 C 
BRANCH  11  12
HETATM   12  C   UNL     1      33.447   7.267 -22.763  1.00  0.00    -0.031 C 
HETATM   13  C   UNL     1      32.156   6.975 -23.018  1.00  0.00    -0.031 C 
BRANCH  13  14
HETATM   14  C   UNL     1      30.934   7.645 -22.426  1.00  0.00     0.027 C 
BRANCH  14  15
HETATM   15  C   UNL     1      30.507   6.964 -21.114  1.00  0.00     0.004 C 
BRANCH  15  16
HETATM   16  C   UNL     1      30.779   5.447 -21.067  1.00  0.00     0.000 C 
BRANCH  16  17
HETATM   17  C   UNL     1      31.774   5.043 -19.967  1.00  0.00     0.000 C 
BRANCH  17  18
HETATM   18  C   UNL     1      31.480   5.785 -18.656  1.00  0.00     0.000 C 
BRANCH  18  19
HETATM   19  C   UNL     1      32.472   5.376 -17.560  1.00  0.00    -0.000 C 
BRANCH  19  20
HETATM   20  C   UNL     1      32.451   6.375 -16.397  1.00  0.00    -0.005 C 
HETATM   21  C   UNL     1      33.866   6.749 -15.967  1.00  0.00     0.005 C 
ENDBRANCH  19  20
ENDBRANCH  18  19
ENDBRANCH  17  18
ENDBRANCH  16  17
ENDBRANCH  15  16
ENDBRANCH  14  15
ENDBRANCH  13  14
ENDBRANCH  11  12
ENDBRANCH  10  11
ENDBRANCH   9  10
ENDBRANCH   8   9
ENDBRANCH   7   8
ENDBRANCH   6   7
ENDBRANCH   5   6
ENDBRANCH   3   5
ENDBRANCH   1   3
TORSDOF 16
ENDMDL
MODEL 2
REMARK VINA RESULT:      -3.8      6.504      9.442
REMARK  16 active torsions:
REMARK  status: ('A' for Active; 'I' for Inactive)
REMARK    1  A    between atoms: O_1  and  C_20 
REMARK    2  A    between atoms: C_3  and  C_4 
REMARK    3  A    between atoms: C_3  and  C_5 
REMARK    4  A    between atoms: C_4  and  C_8 
REMARK    5  A    between atoms: C_5  and  C_11 
REMARK    6  A    between atoms: C_6  and  C_7 
REMARK    7  A    between atoms: C_6  and  C_9 
REMARK    8  A    between atoms: C_7  and  C_10 
REMARK    9  A    between atoms: C_8  and  C_12 
REMARK   10  A    between atoms: C_9  and  C_13 
REMARK   11  A    between atoms: C_10  and  C_14 
REMARK   12  A    between atoms: C_11  and  C_15 
REMARK   13  A    between atoms: C_12  and  C_16 
REMARK   14  A    between atoms: C_13  and  C_17 
REMARK   15  A    between atoms: C_14  and  C_18 
REMARK   16  A    between atoms: C_18  and  C_20 
ROOT
HETATM    1  O   UNL     1      28.452  12.518 -13.550  1.00  0.00    -0.776 OA
HETATM    2  H   UNL     1      29.052  12.966 -12.937  1.00  0.00     0.167 HD
ENDROOT
BRANCH   1   3
HETATM    3  C   UNL     1      28.742  11.304 -14.062  1.00  0.00     0.139 C 
HETATM    4  O   UNL     1      27.835  10.543 -14.372  1.00  0.00    -0.650 OA
BRANCH   3   5
HETATM    5  C   UNL     1      30.185  10.911 -14.239  1.00  0.00     0.110 C 
BRANCH   5   6
HETATM    6  C   UNL     1      30.365   9.443 -14.648  1.00  0.00     0.010 C 
BRANCH   6   7
HETATM    7  C   UNL     1      31.195   8.680 -13.609  1.00  0.00     0.001 C 
BRANCH   7   8
HETATM    8  C   UNL     1      30.996   7.167 -13.753  1.00  0.00     0.000 C 
BRANCH   8   9
HETATM    9  C   UNL     1      32.162   6.527 -14.516  1.00  0.00     0.000 C 
BRANCH   9  10
HETATM   10  C   UNL     1      32.856   5.465 -13.657  1.00  0.00     0.004 C 
BRANCH  10  11
HETATM   11  C   UNL     1      31.965   5.017 -12.495  1.00  0.00     0.027 C 
BRANCH  11  12
HETATM   12  C   UNL     1      32.826   4.703 -11.295  1.00  0.00    -0.031 C 
HETATM   13  C   UNL     1      33.277   5.579 -10.375  1.00  0.00    -0.031 C 
BRANCH  13  14
HETATM   14  C   UNL     1      33.031   7.072 -10.339  1.00  0.00     0.027 C 
BRANCH  14  15
HETATM   15  C   UNL     1      31.646   7.394  -9.748  1.00  0.00     0.004 C 
BRANCH  15  16
HETATM   16  C   UNL     1      31.099   6.319  -8.787  1.00  0.00     0.000 C 
BRANCH  16  17
HETATM   17  C   UNL     1      31.103   6.764  -7.315  1.00  0.00     0.000 C 
BRANCH  17  18
HETATM   18  C   UNL     1      31.913   5.794  -6.445  1.00  0.00     0.000 C 
BRANCH  18  19
HETATM   19  C   UNL     1      33.418   5.968  -6.683  1.00  0.00    -0.000 C 
BRANCH  19  20
HETATM   20  C   UNL     1      33.829   7.440  -6.561  1.00  0.00    -0.005 C 
HETATM   21  C   UNL     1      34.223   7.784  -5.129  1.00  0.00     0.005 C 
ENDBRANCH  19  20
ENDBRANCH  18  19
ENDBRANCH  17  18
ENDBRANCH  16  17
ENDBRANCH  15  16
ENDBRANCH  14  15
ENDBRANCH  13  14
ENDBRANCH  11  12
ENDBRANCH  10  11
ENDBRANCH   9  10
ENDBRANCH   8   9
ENDBRANCH   7   8
ENDBRANCH   6   7
ENDBRANCH   5   6
ENDBRANCH   3   5
ENDBRANCH   1   3
TORSDOF 16
ENDMDL
MODEL 3
REMARK VINA RESULT:      -3.7     47.322     50.528
REMARK  16 active torsions:
REMARK  status: ('A' for Active; 'I' for Inactive)
REMARK    1  A    between atoms: O_1  and  C_20 
REMARK    2  A    between atoms: C_3  and  C_4 
REMARK    3  A    between atoms: C_3  and  C_5 
REMARK    4  A    between atoms: C_4  and  C_8 
REMARK    5  A    between atoms: C_5  and  C_11 
REMARK    6  A    between atoms: C_6  and  C_7 
REMARK    7  A    between atoms: C_6  and  C_9 
REMARK    8  A    between atoms: C_7  and  C_10 
REMARK    9  A    between atoms: C_8  and  C_12 
REMARK   10  A    between atoms: C_9  and  C_13 
REMARK   11  A    between atoms: C_10  and  C_14 
REMARK   12  A    between atoms: C_11  and  C_15 
REMARK   13  A    between atoms: C_12  and  C_16 
REMARK   14  A    between atoms: C_13  and  C_17 
REMARK   15  A    between atoms: C_14  and  C_18 
REMARK   16  A    between atoms: C_18  and  C_20 
ROOT
HETATM    1  O   UNL     1     -18.160  10.051 -12.949  1.00  0.00    -0.776 OA
HETATM    2  H   UNL     1     -18.649   9.396 -13.468  1.00  0.00     0.167 HD
ENDROOT
BRANCH   1   3
HETATM    3  C   UNL     1     -17.868  11.270 -13.449  1.00  0.00     0.139 C 
HETATM    4  O   UNL     1     -18.683  12.178 -13.350  1.00  0.00    -0.650 OA
BRANCH   3   5
HETATM    5  C   UNL     1     -16.537  11.486 -14.120  1.00  0.00     0.110 C 
BRANCH   5   6
HETATM    6  C   UNL     1     -15.523  10.374 -13.819  1.00  0.00     0.010 C 
BRANCH   6   7
HETATM    7  C   UNL     1     -14.508  10.828 -12.762  1.00  0.00     0.001 C 
BRANCH   7   8
HETATM    8  C   UNL     1     -14.968  10.426 -11.356  1.00  0.00     0.000 C 
BRANCH   8   9
HETATM    9  C   UNL     1     -14.850  11.602 -10.380  1.00  0.00     0.000 C 
BRANCH   9  10
HETATM   10  C   UNL     1     -16.022  11.608  -9.393  1.00  0.00     0.004 C 
BRANCH  10  11
HETATM   11  C   UNL     1     -17.254  12.291  -9.993  1.00  0.00     0.027 C 
BRANCH  11  12
HETATM   12  C   UNL     1     -18.485  11.480  -9.665  1.00  0.00    -0.031 C 
HETATM   13  C   UNL     1     -19.675  11.956  -9.245  1.00  0.00    -0.031 C 
BRANCH  13  14
HETATM   14  C   UNL     1     -20.044  13.403  -8.998  1.00  0.00     0.027 C 
BRANCH  14  15
HETATM   15  C   UNL     1     -20.491  13.623  -7.542  1.00  0.00     0.004 C 
BRANCH  15  16
HETATM   16  C   UNL     1     -19.993  12.548  -6.554  1.00  0.00     0.000 C 
BRANCH  16  17
HETATM   17  C   UNL     1     -19.480  13.134  -5.228  1.00  0.00     0.000 C 
BRANCH  17  18
HETATM   18  C   UNL     1     -18.062  12.638  -4.917  1.00  0.00     0.000 C 
BRANCH  18  19
HETATM   19  C   UNL     1     -17.531  11.746  -6.045  1.00  0.00    -0.000 C 
BRANCH  19  20
HETATM   20  C   UNL     1     -16.350  10.894  -5.566  1.00  0.00    -0.005 C 
HETATM   21  C   UNL     1     -15.085  11.735  -5.427  1.00  0.00     0.005 C 
ENDBRANCH  19  20
ENDBRANCH  18  19
ENDBRANCH  17  18
ENDBRANCH  16  17
ENDBRANCH  15  16
ENDBRANCH  14  15
ENDBRANCH  13  14
ENDBRANCH  11  12
ENDBRANCH  10  11
ENDBRANCH   9  10
ENDBRANCH   8   9
ENDBRANCH   7   8
ENDBRANCH   6   7
ENDBRANCH   5   6
ENDBRANCH   3   5
ENDBRANCH   1   3
TORSDOF 16
ENDMDL
MODEL 4
REMARK VINA RESULT:      -3.6      1.887      3.636
REMARK  16 active torsions:
REMARK  status: ('A' for Active; 'I' for Inactive)
REMARK    1  A    between atoms: O_1  and  C_20 
REMARK    2  A    between atoms: C_3  and  C_4 
REMARK    3  A    between atoms: C_3  and  C_5 
REMARK    4  A    between atoms: C_4  and  C_8 
REMARK    5  A    between atoms: C_5  and  C_11 
REMARK    6  A    between atoms: C_6  and  C_7 
REMARK    7  A    between atoms: C_6  and  C_9 
REMARK    8  A    between atoms: C_7  and  C_10 
REMARK    9  A    between atoms: C_8  and  C_12 
REMARK   10  A    between atoms: C_9  and  C_13 
REMARK   11  A    between atoms: C_10  and  C_14 
REMARK   12  A    between atoms: C_11  and  C_15 
REMARK   13  A    between atoms: C_12  and  C_16 
REMARK   14  A    between atoms: C_13  and  C_17 
REMARK   15  A    between atoms: C_14  and  C_18 
REMARK   16  A    between atoms: C_18  and  C_20 
ROOT
HETATM    1  O   UNL     1      28.934  11.680 -21.811  1.00  0.00    -0.776 OA
HETATM    2  H   UNL     1      28.262  10.984 -21.822  1.00  0.00     0.167 HD
ENDROOT
BRANCH   1   3
HETATM    3  C   UNL     1      30.188  11.443 -21.373  1.00  0.00     0.139 C 
HETATM    4  O   UNL     1      31.140  11.940 -21.959  1.00  0.00    -0.650 OA
BRANCH   3   5
HETATM    5  C   UNL     1      30.387  10.567 -20.164  1.00  0.00     0.110 C 
BRANCH   5   6
HETATM    6  C   UNL     1      30.195   9.074 -20.464  1.00  0.00     0.010 C 
BRANCH   6   7
HETATM    7  C   UNL     1      31.379   8.516 -21.263  1.00  0.00     0.001 C 
BRANCH   7   8
HETATM    8  C   UNL     1      30.911   7.935 -22.601  1.00  0.00     0.000 C 
BRANCH   8   9
HETATM    9  C   UNL     1      30.939   6.402 -22.577  1.00  0.00     0.000 C 
BRANCH   9  10
HETATM   10  C   UNL     1      32.371   5.888 -22.398  1.00  0.00     0.004 C 
BRANCH  10  11
HETATM   11  C   UNL     1      32.459   4.861 -21.267  1.00  0.00     0.027 C 
BRANCH  11  12
HETATM   12  C   UNL     1      33.356   5.393 -20.175  1.00  0.00    -0.031 C 
HETATM   13  C   UNL     1      32.967   5.907 -18.991  1.00  0.00    -0.031 C 
BRANCH  13  14
HETATM   14  C   UNL     1      31.548   6.075 -18.491  1.00  0.00     0.027 C 
BRANCH  14  15
HETATM   15  C   UNL     1      31.240   5.091 -17.348  1.00  0.00     0.004 C 
BRANCH  15  16
HETATM   16  C   UNL     1      30.732   5.758 -16.054  1.00  0.00     0.000 C 
BRANCH  16  17
HETATM   17  C   UNL     1      31.599   5.436 -14.825  1.00  0.00     0.000 C 
BRANCH  17  18
HETATM   18  C   UNL     1      33.092   5.579 -15.149  1.00  0.00     0.000 C 
BRANCH  18  19
HETATM   19  C   UNL     1      33.579   7.007 -14.875  1.00  0.00    -0.000 C 
BRANCH  19  20
HETATM   20  C   UNL     1      34.469   7.514 -16.016  1.00  0.00    -0.005 C 
HETATM   21  C   UNL     1      35.126   8.842 -15.653  1.00  0.00     0.005 C 
ENDBRANCH  19  20
ENDBRANCH  18  19
ENDBRANCH  17  18
ENDBRANCH  16  17
ENDBRANCH  15  16
ENDBRANCH  14  15
ENDBRANCH  13  14
ENDBRANCH  11  12
ENDBRANCH  10  11
ENDBRANCH   9  10
ENDBRANCH   8   9
ENDBRANCH   7   8
ENDBRANCH   6   7
ENDBRANCH   5   6
ENDBRANCH   3   5
ENDBRANCH   1   3
TORSDOF 16
ENDMDL
MODEL 5
REMARK VINA RESULT:      -3.6      3.039      5.366
REMARK  16 active torsions:
REMARK  status: ('A' for Active; 'I' for Inactive)
REMARK    1  A    between atoms: O_1  and  C_20 
REMARK    2  A    between atoms: C_3  and  C_4 
REMARK    3  A    between atoms: C_3  and  C_5 
REMARK    4  A    between atoms: C_4  and  C_8 
REMARK    5  A    between atoms: C_5  and  C_11 
REMARK    6  A    between atoms: C_6  and  C_7 
REMARK    7  A    between atoms: C_6  and  C_9 
REMARK    8  A    between atoms: C_7  and  C_10 
REMARK    9  A    between atoms: C_8  and  C_12 
REMARK   10  A    between atoms: C_9  and  C_13 
REMARK   11  A    between atoms: C_10  and  C_14 
REMARK   12  A    between atoms: C_11  and  C_15 
REMARK   13  A    between atoms: C_12  and  C_16 
REMARK   14  A    between atoms: C_13  and  C_17 
REMARK   15  A    between atoms: C_14  and  C_18 
REMARK   16  A    between atoms: C_18  and  C_20 
ROOT
HETATM    1  O   UNL     1      28.243  11.867 -14.984  1.00  0.00    -0.776 OA
HETATM    2  H   UNL     1      28.473  11.259 -14.267  1.00  0.00     0.167 HD
ENDROOT
BRANCH   1   3
HETATM    3  C   UNL     1      29.193  12.469 -15.729  1.00  0.00     0.139 C 
HETATM    4  O   UNL     1      28.887  13.393 -16.472  1.00  0.00    -0.650 OA
BRANCH   3   5
HETATM    5  C   UNL     1      30.616  11.987 -15.629  1.00  0.00     0.110 C 
BRANCH   5   6
HETATM    6  C   UNL     1      31.271  11.752 -16.997  1.00  0.00     0.010 C 
BRANCH   6   7
HETATM    7  C   UNL     1      30.546  10.644 -17.770  1.00  0.00     0.001 C 
BRANCH   7   8
HETATM    8  C   UNL     1      30.708   9.291 -17.068  1.00  0.00     0.000 C 
BRANCH   8   9
HETATM    9  C   UNL     1      31.723   8.406 -17.803  1.00  0.00     0.000 C 
BRANCH   9  10
HETATM   10  C   UNL     1      31.015   7.259 -18.531  1.00  0.00     0.004 C 
BRANCH  10  11
HETATM   11  C   UNL     1      31.547   5.897 -18.076  1.00  0.00     0.027 C 
BRANCH  11  12
HETATM   12  C   UNL     1      31.107   5.636 -16.655  1.00  0.00    -0.031 C 
HETATM   13  C   UNL     1      31.906   5.427 -15.590  1.00  0.00    -0.031 C 
BRANCH  13  14
HETATM   14  C   UNL     1      33.420   5.398 -15.576  1.00  0.00     0.027 C 
BRANCH  14  15
HETATM   15  C   UNL     1      34.004   6.821 -15.569  1.00  0.00     0.004 C 
BRANCH  15  16
HETATM   16  C   UNL     1      33.882   7.552 -14.216  1.00  0.00     0.000 C 
BRANCH  16  17
HETATM   17  C   UNL     1      32.946   8.771 -14.268  1.00  0.00     0.000 C 
BRANCH  17  18
HETATM   18  C   UNL     1      31.669   8.523 -13.454  1.00  0.00     0.000 C 
BRANCH  18  19
HETATM   19  C   UNL     1      31.888   7.424 -12.409  1.00  0.00    -0.000 C 
BRANCH  19  20
HETATM   20  C   UNL     1      30.674   6.492 -12.324  1.00  0.00    -0.005 C 
HETATM   21  C   UNL     1      30.663   5.720 -11.008  1.00  0.00     0.005 C 
ENDBRANCH  19  20
ENDBRANCH  18  19
ENDBRANCH  17  18
ENDBRANCH  16  17
ENDBRANCH  15  16
ENDBRANCH  14  15
ENDBRANCH  13  14
ENDBRANCH  11  12
ENDBRANCH  10  11
ENDBRANCH   9  10
ENDBRANCH   8   9
ENDBRANCH   7   8
ENDBRANCH   6   7
ENDBRANCH   5   6
ENDBRANCH   3   5
ENDBRANCH   1   3
TORSDOF 16
ENDMDL
MODEL 6
REMARK VINA RESULT:      -3.6     46.430     49.611
REMARK  16 active torsions:
REMARK  status: ('A' for Active; 'I' for Inactive)
REMARK    1  A    between atoms: O_1  and  C_20 
REMARK    2  A    between atoms: C_3  and  C_4 
REMARK    3  A    between atoms: C_3  and  C_5 
REMARK    4  A    between atoms: C_4  and  C_8 
REMARK    5  A    between atoms: C_5  and  C_11 
REMARK    6  A    between atoms: C_6  and  C_7 
REMARK    7  A    between atoms: C_6  and  C_9 
REMARK    8  A    between atoms: C_7  and  C_10 
REMARK    9  A    between atoms: C_8  and  C_12 
REMARK   10  A    between atoms: C_9  and  C_13 
REMARK   11  A    between atoms: C_10  and  C_14 
REMARK   12  A    between atoms: C_11  and  C_15 
REMARK   13  A    between atoms: C_12  and  C_16 
REMARK   14  A    between atoms: C_13  and  C_17 
REMARK   15  A    between atoms: C_14  and  C_18 
REMARK   16  A    between atoms: C_18  and  C_20 
ROOT
HETATM    1  O   UNL     1     -23.027  14.007 -11.895  1.00  0.00    -0.776 OA
HETATM    2  H   UNL     1     -22.758  14.934 -11.817  1.00  0.00     0.167 HD
ENDROOT
BRANCH   1   3
HETATM    3  C   UNL     1     -22.118  13.013 -11.967  1.00  0.00     0.139 C 
HETATM    4  O   UNL     1     -22.455  11.863 -11.720  1.00  0.00    -0.650 OA
BRANCH   3   5
HETATM    5  C   UNL     1     -20.700  13.345 -12.354  1.00  0.00     0.110 C 
BRANCH   5   6
HETATM    6  C   UNL     1     -19.657  12.536 -11.570  1.00  0.00     0.010 C 
BRANCH   6   7
HETATM    7  C   UNL     1     -19.501  13.077 -10.143  1.00  0.00     0.001 C 
BRANCH   7   8
HETATM    8  C   UNL     1     -18.216  12.549  -9.496  1.00  0.00     0.000 C 
BRANCH   8   9
HETATM    9  C   UNL     1     -17.379  11.750 -10.503  1.00  0.00     0.000 C 
BRANCH   9  10
HETATM   10  C   UNL     1     -15.885  12.032 -10.311  1.00  0.00     0.004 C 
BRANCH  10  11
HETATM   11  C   UNL     1     -15.179  10.858  -9.628  1.00  0.00     0.027 C 
BRANCH  11  12
HETATM   12  C   UNL     1     -13.706  11.165  -9.499  1.00  0.00    -0.031 C 
HETATM   13  C   UNL     1     -12.710  10.673 -10.264  1.00  0.00    -0.031 C 
BRANCH  13  14
HETATM   14  C   UNL     1     -12.840   9.697 -11.414  1.00  0.00     0.027 C 
BRANCH  14  15
HETATM   15  C   UNL     1     -13.703  10.283 -12.546  1.00  0.00     0.004 C 
BRANCH  15  16
HETATM   16  C   UNL     1     -12.908  10.710 -13.797  1.00  0.00     0.000 C 
BRANCH  16  17
HETATM   17  C   UNL     1     -13.797  10.944 -15.029  1.00  0.00     0.000 C 
BRANCH  17  18
HETATM   18  C   UNL     1     -15.283  10.808 -14.673  1.00  0.00     0.000 C 
BRANCH  18  19
HETATM   19  C   UNL     1     -16.032  12.120 -14.935  1.00  0.00    -0.000 C 
BRANCH  19  20
HETATM   20  C   UNL     1     -17.537  11.954 -14.692  1.00  0.00    -0.005 C 
HETATM   21  C   UNL     1     -17.852  10.582 -14.105  1.00  0.00     0.005 C 
ENDBRANCH  19  20
ENDBRANCH  18  19
ENDBRANCH  17  18
ENDBRANCH  16  17
ENDBRANCH  15  16
ENDBRANCH  14  15
ENDBRANCH  13  14
ENDBRANCH  11  12
ENDBRANCH  10  11
ENDBRANCH   9  10
ENDBRANCH   8   9
ENDBRANCH   7   8
ENDBRANCH   6   7
ENDBRANCH   5   6
ENDBRANCH   3   5
ENDBRANCH   1   3
TORSDOF 16
ENDMDL
MODEL 7
REMARK VINA RESULT:      -3.5      2.878      4.426
REMARK  16 active torsions:
REMARK  status: ('A' for Active; 'I' for Inactive)
REMARK    1  A    between atoms: O_1  and  C_20 
REMARK    2  A    between atoms: C_3  and  C_4 
REMARK    3  A    between atoms: C_3  and  C_5 
REMARK    4  A    between atoms: C_4  and  C_8 
REMARK    5  A    between atoms: C_5  and  C_11 
REMARK    6  A    between atoms: C_6  and  C_7 
REMARK    7  A    between atoms: C_6  and  C_9 
REMARK    8  A    between atoms: C_7  and  C_10 
REMARK    9  A    between atoms: C_8  and  C_12 
REMARK   10  A    between atoms: C_9  and  C_13 
REMARK   11  A    between atoms: C_10  and  C_14 
REMARK   12  A    between atoms: C_11  and  C_15 
REMARK   13  A    between atoms: C_12  and  C_16 
REMARK   14  A    between atoms: C_13  and  C_17 
REMARK   15  A    between atoms: C_14  and  C_18 
REMARK   16  A    between atoms: C_18  and  C_20 
ROOT
HETATM    1  O   UNL     1      28.388  12.521 -13.409  1.00  0.00    -0.776 OA
HETATM    2  H   UNL     1      27.430  12.383 -13.391  1.00  0.00     0.167 HD
ENDROOT
BRANCH   1   3
HETATM    3  C   UNL     1      29.245  11.491 -13.572  1.00  0.00     0.139 C 
HETATM    4  O   UNL     1      28.922  10.369 -13.204  1.00  0.00    -0.650 OA
BRANCH   3   5
HETATM    5  C   UNL     1      30.586  11.749 -14.206  1.00  0.00     0.110 C 
BRANCH   5   6
HETATM    6  C   UNL     1      30.765  11.033 -15.551  1.00  0.00     0.010 C 
BRANCH   6   7
HETATM    7  C   UNL     1      29.547  11.253 -16.457  1.00  0.00     0.001 C 
BRANCH   7   8
HETATM    8  C   UNL     1      29.926  12.082 -17.690  1.00  0.00     0.000 C 
BRANCH   8   9
HETATM    9  C   UNL     1      28.738  12.216 -18.650  1.00  0.00     0.000 C 
BRANCH   9  10
HETATM   10  C   UNL     1      29.177  11.957 -20.095  1.00  0.00     0.004 C 
BRANCH  10  11
HETATM   11  C   UNL     1      30.557  11.298 -20.151  1.00  0.00     0.027 C 
BRANCH  11  12
HETATM   12  C   UNL     1      30.395   9.797 -20.188  1.00  0.00    -0.031 C 
HETATM   13  C   UNL     1      31.128   8.890 -19.511  1.00  0.00    -0.031 C 
BRANCH  13  14
HETATM   14  C   UNL     1      32.281   9.167 -18.569  1.00  0.00     0.027 C 
BRANCH  14  15
HETATM   15  C   UNL     1      33.309   8.022 -18.596  1.00  0.00     0.004 C 
BRANCH  15  16
HETATM   16  C   UNL     1      33.081   6.989 -19.719  1.00  0.00     0.000 C 
BRANCH  16  17
HETATM   17  C   UNL     1      32.977   5.545 -19.202  1.00  0.00     0.000 C 
BRANCH  17  18
HETATM   18  C   UNL     1      31.713   5.352 -18.354  1.00  0.00     0.000 C 
BRANCH  18  19
HETATM   19  C   UNL     1      32.065   4.850 -16.948  1.00  0.00    -0.000 C 
BRANCH  19  20
HETATM   20  C   UNL     1      31.797   5.929 -15.893  1.00  0.00    -0.005 C 
HETATM   21  C   UNL     1      30.584   6.775 -16.267  1.00  0.00     0.005 C 
ENDBRANCH  19  20
ENDBRANCH  18  19
ENDBRANCH  17  18
ENDBRANCH  16  17
ENDBRANCH  15  16
ENDBRANCH  14  15
ENDBRANCH  13  14
ENDBRANCH  11  12
ENDBRANCH  10  11
ENDBRANCH   9  10
ENDBRANCH   8   9
ENDBRANCH   7   8
ENDBRANCH   6   7
ENDBRANCH   5   6
ENDBRANCH   3   5
ENDBRANCH   1   3
TORSDOF 16
ENDMDL
MODEL 8
REMARK VINA RESULT:      -3.5      6.323      9.441
REMARK  16 active torsions:
REMARK  status: ('A' for Active; 'I' for Inactive)
REMARK    1  A    between atoms: O_1  and  C_20 
REMARK    2  A    between atoms: C_3  and  C_4 
REMARK    3  A    between atoms: C_3  and  C_5 
REMARK    4  A    between atoms: C_4  and  C_8 
REMARK    5  A    between atoms: C_5  and  C_11 
REMARK    6  A    between atoms: C_6  and  C_7 
REMARK    7  A    between atoms: C_6  and  C_9 
REMARK    8  A    between atoms: C_7  and  C_10 
REMARK    9  A    between atoms: C_8  and  C_12 
REMARK   10  A    between atoms: C_9  and  C_13 
REMARK   11  A    between atoms: C_10  and  C_14 
REMARK   12  A    between atoms: C_11  and  C_15 
REMARK   13  A    between atoms: C_12  and  C_16 
REMARK   14  A    between atoms: C_13  and  C_17 
REMARK   15  A    between atoms: C_14  and  C_18 
REMARK   16  A    between atoms: C_18  and  C_20 
ROOT
HETATM    1  O   UNL     1      28.007  11.247 -14.392  1.00  0.00    -0.776 OA
HETATM    2  H   UNL     1      27.946  11.655 -13.516  1.00  0.00     0.167 HD
ENDROOT
BRANCH   1   3
HETATM    3  C   UNL     1      29.049  10.460 -14.732  1.00  0.00     0.139 C 
HETATM    4  O   UNL     1      29.069   9.919 -15.830  1.00  0.00    -0.650 OA
BRANCH   3   5
HETATM    5  C   UNL     1      30.171  10.265 -13.746  1.00  0.00     0.110 C 
BRANCH   5   6
HETATM    6  C   UNL     1      31.293   9.364 -14.279  1.00  0.00     0.010 C 
BRANCH   6   7
HETATM    7  C   UNL     1      31.390   8.067 -13.467  1.00  0.00     0.001 C 
BRANCH   7   8
HETATM    8  C   UNL     1      30.853   6.877 -14.269  1.00  0.00     0.000 C 
BRANCH   8   9
HETATM    9  C   UNL     1      31.949   5.831 -14.506  1.00  0.00     0.000 C 
BRANCH   9  10
HETATM   10  C   UNL     1      32.894   5.753 -13.302  1.00  0.00     0.004 C 
BRANCH  10  11
HETATM   11  C   UNL     1      32.288   4.920 -12.169  1.00  0.00     0.027 C 
BRANCH  11  12
HETATM   12  C   UNL     1      33.213   4.948 -10.976  1.00  0.00    -0.031 C 
HETATM   13  C   UNL     1      33.271   5.900 -10.023  1.00  0.00    -0.031 C 
BRANCH  13  14
HETATM   14  C   UNL     1      32.432   7.158  -9.937  1.00  0.00     0.027 C 
BRANCH  14  15
HETATM   15  C   UNL     1      31.146   6.914  -9.128  1.00  0.00     0.004 C 
BRANCH  15  16
HETATM   16  C   UNL     1      31.371   6.734  -7.613  1.00  0.00     0.000 C 
BRANCH  16  17
HETATM   17  C   UNL     1      30.849   7.914  -6.778  1.00  0.00     0.000 C 
BRANCH  17  18
HETATM   18  C   UNL     1      31.384   9.249  -7.312  1.00  0.00     0.000 C 
BRANCH  18  19
HETATM   19  C   UNL     1      30.234  10.199  -7.668  1.00  0.00    -0.000 C 
BRANCH  19  20
HETATM   20  C   UNL     1      30.326  10.655  -9.128  1.00  0.00    -0.005 C 
HETATM   21  C   UNL     1      29.226  10.021  -9.973  1.00  0.00     0.005 C 
ENDBRANCH  19  20
ENDBRANCH  18  19
ENDBRANCH  17  18
ENDBRANCH  16  17
ENDBRANCH  15  16
ENDBRANCH  14  15
ENDBRANCH  13  14
ENDBRANCH  11  12
ENDBRANCH  10  11
ENDBRANCH   9  10
ENDBRANCH   8   9
ENDBRANCH   7   8
ENDBRANCH   6   7
ENDBRANCH   5   6
ENDBRANCH   3   5
ENDBRANCH   1   3
TORSDOF 16
ENDMDL
MODEL 9
REMARK VINA RESULT:      -3.4      2.823      4.927
REMARK  16 active torsions:
REMARK  status: ('A' for Active; 'I' for Inactive)
REMARK    1  A    between atoms: O_1  and  C_20 
REMARK    2  A    between atoms: C_3  and  C_4 
REMARK    3  A    between atoms: C_3  and  C_5 
REMARK    4  A    between atoms: C_4  and  C_8 
REMARK    5  A    between atoms: C_5  and  C_11 
REMARK    6  A    between atoms: C_6  and  C_7 
REMARK    7  A    between atoms: C_6  and  C_9 
REMARK    8  A    between atoms: C_7  and  C_10 
REMARK    9  A    between atoms: C_8  and  C_12 
REMARK   10  A    between atoms: C_9  and  C_13 
REMARK   11  A    between atoms: C_10  and  C_14 
REMARK   12  A    between atoms: C_11  and  C_15 
REMARK   13  A    between atoms: C_12  and  C_16 
REMARK   14  A    between atoms: C_13  and  C_17 
REMARK   15  A    between atoms: C_14  and  C_18 
REMARK   16  A    between atoms: C_18  and  C_20 
ROOT
HETATM    1  O   UNL     1      28.653  11.524 -15.033  1.00  0.00    -0.776 OA
HETATM    2  H   UNL     1      27.755  11.882 -15.070  1.00  0.00     0.167 HD
ENDROOT
BRANCH   1   3
HETATM    3  C   UNL     1      29.112  10.882 -13.937  1.00  0.00     0.139 C 
HETATM    4  O   UNL     1      28.884  11.341 -12.826  1.00  0.00    -0.650 OA
BRANCH   3   5
HETATM    5  C   UNL     1      29.898   9.609 -14.111  1.00  0.00     0.110 C 
BRANCH   5   6
HETATM    6  C   UNL     1      31.400   9.851 -14.314  1.00  0.00     0.010 C 
BRANCH   6   7
HETATM    7  C   UNL     1      31.797   9.637 -15.780  1.00  0.00     0.001 C 
BRANCH   7   8
HETATM    8  C   UNL     1      32.902   8.582 -15.898  1.00  0.00     0.000 C 
BRANCH   8   9
HETATM    9  C   UNL     1      32.352   7.175 -15.633  1.00  0.00     0.000 C 
BRANCH   9  10
HETATM   10  C   UNL     1      33.453   6.122 -15.791  1.00  0.00     0.004 C 
BRANCH  10  11
HETATM   11  C   UNL     1      32.968   4.924 -16.610  1.00  0.00     0.027 C 
BRANCH  11  12
HETATM   12  C   UNL     1      31.813   5.350 -17.485  1.00  0.00    -0.031 C 
HETATM   13  C   UNL     1      31.840   5.538 -18.820  1.00  0.00    -0.031 C 
BRANCH  13  14
HETATM   14  C   UNL     1      33.030   5.374 -19.741  1.00  0.00     0.027 C 
BRANCH  14  15
HETATM   15  C   UNL     1      33.435   6.718 -20.372  1.00  0.00     0.004 C 
BRANCH  15  16
HETATM   16  C   UNL     1      33.949   7.765 -19.364  1.00  0.00     0.000 C 
BRANCH  16  17
HETATM   17  C   UNL     1      33.176   9.093 -19.421  1.00  0.00     0.000 C 
BRANCH  17  18
HETATM   18  C   UNL     1      31.863   8.935 -20.201  1.00  0.00     0.000 C 
BRANCH  18  19
HETATM   19  C   UNL     1      30.654   9.000 -19.260  1.00  0.00    -0.000 C 
BRANCH  19  20
HETATM   20  C   UNL     1      30.237  10.452 -18.996  1.00  0.00    -0.005 C 
HETATM   21  C   UNL     1      28.768  10.674 -19.341  1.00  0.00     0.005 C 
ENDBRANCH  19  20
ENDBRANCH  18  19
ENDBRANCH  17  18
ENDBRANCH  16  17
ENDBRANCH  15  16
ENDBRANCH  14  15
ENDBRANCH  13  14
ENDBRANCH  11  12
ENDBRANCH  10  11
ENDBRANCH   9  10
ENDBRANCH   8   9
ENDBRANCH   7   8
ENDBRANCH   6   7
ENDBRANCH   5   6
ENDBRANCH   3   5
ENDBRANCH   1   3
TORSDOF 16
ENDMDL
MODEL 10
REMARK VINA RESULT:      -3.4     28.288     30.818
REMARK  16 active torsions:
REMARK  status: ('A' for Active; 'I' for Inactive)
REMARK    1  A    between atoms: O_1  and  C_20 
REMARK    2  A    between atoms: C_3  and  C_4 
REMARK    3  A    between atoms: C_3  and  C_5 
REMARK    4  A    between atoms: C_4  and  C_8 
REMARK    5  A    between atoms: C_5  and  C_11 
REMARK    6  A    between atoms: C_6  and  C_7 
REMARK    7  A    between atoms: C_6  and  C_9 
REMARK    8  A    between atoms: C_7  and  C_10 
REMARK    9  A    between atoms: C_8  and  C_12 
REMARK   10  A    between atoms: C_9  and  C_13 
REMARK   11  A    between atoms: C_10  and  C_14 
REMARK   12  A    between atoms: C_11  and  C_15 
REMARK   13  A    between atoms: C_12  and  C_16 
REMARK   14  A    between atoms: C_13  and  C_17 
REMARK   15  A    between atoms: C_14  and  C_18 
REMARK   16  A    between atoms: C_18  and  C_20 
ROOT
HETATM    1  O   UNL     1      12.887  -9.295  -6.640  1.00  0.00    -0.776 OA
HETATM    2  H   UNL     1      12.328  -8.620  -6.230  1.00  0.00     0.167 HD
ENDROOT
BRANCH   1   3
HETATM    3  C   UNL     1      14.029  -8.971  -7.282  1.00  0.00     0.139 C 
HETATM    4  O   UNL     1      14.074  -9.023  -8.504  1.00  0.00    -0.650 OA
BRANCH   3   5
HETATM    5  C   UNL     1      15.228  -8.551  -6.474  1.00  0.00     0.110 C 
BRANCH   5   6
HETATM    6  C   UNL     1      15.488  -9.458  -5.263  1.00  0.00     0.010 C 
BRANCH   6   7
HETATM    7  C   UNL     1      14.829  -8.890  -3.999  1.00  0.00     0.001 C 
BRANCH   7   8
HETATM    8  C   UNL     1      15.716  -9.119  -2.771  1.00  0.00     0.000 C 
BRANCH   8   9
HETATM    9  C   UNL     1      15.202  -8.325  -1.564  1.00  0.00     0.000 C 
BRANCH   9  10
HETATM   10  C   UNL     1      15.008  -9.243  -0.353  1.00  0.00     0.004 C 
BRANCH  10  11
HETATM   11  C   UNL     1      16.175 -10.222  -0.200  1.00  0.00     0.027 C 
BRANCH  11  12
HETATM   12  C   UNL     1      16.222 -10.730   1.221  1.00  0.00    -0.031 C 
HETATM   13  C   UNL     1      17.200 -11.470   1.781  1.00  0.00    -0.031 C 
BRANCH  13  14
HETATM   14  C   UNL     1      18.466 -11.965   1.113  1.00  0.00     0.027 C 
BRANCH  14  15
HETATM   15  C   UNL     1      18.883 -13.340   1.663  1.00  0.00     0.004 C 
BRANCH  15  16
HETATM   16  C   UNL     1      19.935 -14.075   0.807  1.00  0.00     0.000 C 
BRANCH  16  17
HETATM   17  C   UNL     1      19.796 -15.605   0.856  1.00  0.00     0.000 C 
BRANCH  17  18
HETATM   18  C   UNL     1      19.215 -16.150  -0.455  1.00  0.00     0.000 C 
BRANCH  18  19
HETATM   19  C   UNL     1      20.158 -17.181  -1.087  1.00  0.00    -0.000 C 
BRANCH  19  20
HETATM   20  C   UNL     1      21.322 -16.494  -1.810  1.00  0.00    -0.005 C 
HETATM   21  C   UNL     1      22.665 -16.943  -1.242  1.00  0.00     0.005 C 
ENDBRANCH  19  20
ENDBRANCH  18  19
ENDBRANCH  17  18
ENDBRANCH  16  17
ENDBRANCH  15  16
ENDBRANCH  14  15
ENDBRANCH  13  14
ENDBRANCH  11  12
ENDBRANCH  10  11
ENDBRANCH   9  10
ENDBRANCH   8   9
ENDBRANCH   7   8
ENDBRANCH   6   7
ENDBRANCH   5   6
ENDBRANCH   3   5
ENDBRANCH   1   3
TORSDOF 16
ENDMDL
MODEL 11
REMARK VINA RESULT:      -3.4     45.290     48.343
REMARK  16 active torsions:
REMARK  status: ('A' for Active; 'I' for Inactive)
REMARK    1  A    between atoms: O_1  and  C_20 
REMARK    2  A    between atoms: C_3  and  C_4 
REMARK    3  A    between atoms: C_3  and  C_5 
REMARK    4  A    between atoms: C_4  and  C_8 
REMARK    5  A    between atoms: C_5  and  C_11 
REMARK    6  A    between atoms: C_6  and  C_7 
REMARK    7  A    between atoms: C_6  and  C_9 
REMARK    8  A    between atoms: C_7  and  C_10 
REMARK    9  A    between atoms: C_8  and  C_12 
REMARK   10  A    between atoms: C_9  and  C_13 
REMARK   11  A    between atoms: C_10  and  C_14 
REMARK   12  A    between atoms: C_11  and  C_15 
REMARK   13  A    between atoms: C_12  and  C_16 
REMARK   14  A    between atoms: C_13  and  C_17 
REMARK   15  A    between atoms: C_14  and  C_18 
REMARK   16  A    between atoms: C_18  and  C_20 
ROOT
HETATM    1  O   UNL     1     -19.409  10.668  -8.951  1.00  0.00    -0.776 OA
HETATM    2  H   UNL     1     -19.020  10.044  -9.581  1.00  0.00     0.167 HD
ENDROOT
BRANCH   1   3
HETATM    3  C   UNL     1     -18.895  11.902  -8.770  1.00  0.00     0.139 C 
HETATM    4  O   UNL     1     -19.159  12.527  -7.752  1.00  0.00    -0.650 OA
BRANCH   3   5
HETATM    5  C   UNL     1     -18.000  12.484  -9.833  1.00  0.00     0.110 C 
BRANCH   5   6
HETATM    6  C   UNL     1     -16.797  11.591 -10.164  1.00  0.00     0.010 C 
BRANCH   6   7
HETATM    7  C   UNL     1     -16.720  11.307 -11.669  1.00  0.00     0.001 C 
BRANCH   7   8
HETATM    8  C   UNL     1     -18.106  11.407 -12.315  1.00  0.00     0.000 C 
BRANCH   8   9
HETATM    9  C   UNL     1     -18.152  10.641 -13.643  1.00  0.00     0.000 C 
BRANCH   9  10
HETATM   10  C   UNL     1     -16.820   9.933 -13.908  1.00  0.00     0.004 C 
BRANCH  10  11
HETATM   11  C   UNL     1     -16.338  10.165 -15.343  1.00  0.00     0.027 C 
BRANCH  11  12
HETATM   12  C   UNL     1     -15.730  11.543 -15.450  1.00  0.00    -0.031 C 
HETATM   13  C   UNL     1     -14.444  11.877 -15.225  1.00  0.00    -0.031 C 
BRANCH  13  14
HETATM   14  C   UNL     1     -13.321  10.951 -14.805  1.00  0.00     0.027 C 
BRANCH  14  15
HETATM   15  C   UNL     1     -12.515  10.467 -16.023  1.00  0.00     0.004 C 
BRANCH  15  16
HETATM   16  C   UNL     1     -13.053   9.174 -16.670  1.00  0.00     0.000 C 
BRANCH  16  17
HETATM   17  C   UNL     1     -13.284   9.304 -18.184  1.00  0.00     0.000 C 
BRANCH  17  18
HETATM   18  C   UNL     1     -13.081  10.751 -18.652  1.00  0.00     0.000 C 
BRANCH  18  19
HETATM   19  C   UNL     1     -14.153  11.154 -19.671  1.00  0.00    -0.000 C 
BRANCH  19  20
HETATM   20  C   UNL     1     -15.561  10.995 -19.084  1.00  0.00    -0.005 C 
HETATM   21  C   UNL     1     -16.524  12.018 -19.679  1.00  0.00     0.005 C 
ENDBRANCH  19  20
ENDBRANCH  18  19
ENDBRANCH  17  18
ENDBRANCH  16  17
ENDBRANCH  15  16
ENDBRANCH  14  15
ENDBRANCH  13  14
ENDBRANCH  11  12
ENDBRANCH  10  11
ENDBRANCH   9  10
ENDBRANCH   8   9
ENDBRANCH   7   8
ENDBRANCH   6   7
ENDBRANCH   5   6
ENDBRANCH   3   5
ENDBRANCH   1   3
TORSDOF 16
ENDMDL
MODEL 12
REMARK VINA RESULT:      -3.4      3.820      5.089
REMARK  16 active torsions:
REMARK  status: ('A' for Active; 'I' for Inactive)
REMARK    1  A    between atoms: O_1  and  C_20 
REMARK    2  A    between atoms: C_3  and  C_4 
REMARK    3  A    between atoms: C_3  and  C_5 
REMARK    4  A    between atoms: C_4  and  C_8 
REMARK    5  A    between atoms: C_5  and  C_11 
REMARK    6  A    between atoms: C_6  and  C_7 
REMARK    7  A    between atoms: C_6  and  C_9 
REMARK    8  A    between atoms: C_7  and  C_10 
REMARK    9  A    between atoms: C_8  and  C_12 
REMARK   10  A    between atoms: C_9  and  C_13 
REMARK   11  A    between atoms: C_10  and  C_14 
REMARK   12  A    between atoms: C_11  and  C_15 
REMARK   13  A    between atoms: C_12  and  C_16 
REMARK   14  A    between atoms: C_13  and  C_17 
REMARK   15  A    between atoms: C_14  and  C_18 
REMARK   16  A    between atoms: C_18  and  C_20 
ROOT
HETATM    1  O   UNL     1      28.635  12.817 -12.088  1.00  0.00    -0.776 OA
HETATM    2  H   UNL     1      28.207  12.734 -11.224  1.00  0.00     0.167 HD
ENDROOT
BRANCH   1   3
HETATM    3  C   UNL     1      29.156  11.747 -12.723  1.00  0.00     0.139 C 
HETATM    4  O   UNL     1      29.020  10.630 -12.242  1.00  0.00    -0.650 OA
BRANCH   3   5
HETATM    5  C   UNL     1      29.898  11.954 -14.017  1.00  0.00     0.110 C 
BRANCH   5   6
HETATM    6  C   UNL     1      29.579  10.886 -15.073  1.00  0.00     0.010 C 
BRANCH   6   7
HETATM    7  C   UNL     1      30.853  10.159 -15.521  1.00  0.00     0.001 C 
BRANCH   7   8
HETATM    8  C   UNL     1      30.772   9.779 -17.004  1.00  0.00     0.000 C 
BRANCH   8   9
HETATM    9  C   UNL     1      31.811  10.550 -17.828  1.00  0.00     0.000 C 
BRANCH   9  10
HETATM   10  C   UNL     1      32.669   9.589 -18.657  1.00  0.00     0.004 C 
BRANCH  10  11
HETATM   11  C   UNL     1      33.312   8.513 -17.777  1.00  0.00     0.027 C 
BRANCH  11  12
HETATM   12  C   UNL     1      33.230   7.178 -18.476  1.00  0.00    -0.031 C 
HETATM   13  C   UNL     1      32.212   6.295 -18.412  1.00  0.00    -0.031 C 
BRANCH  13  14
HETATM   14  C   UNL     1      30.929   6.437 -17.620  1.00  0.00     0.027 C 
BRANCH  14  15
HETATM   15  C   UNL     1      30.655   5.181 -16.776  1.00  0.00     0.004 C 
BRANCH  15  16
HETATM   16  C   UNL     1      30.876   5.371 -15.261  1.00  0.00     0.000 C 
BRANCH  16  17
HETATM   17  C   UNL     1      31.685   6.633 -14.920  1.00  0.00     0.000 C 
BRANCH  17  18
HETATM   18  C   UNL     1      32.699   6.355 -13.803  1.00  0.00     0.000 C 
BRANCH  18  19
HETATM   19  C   UNL     1      32.287   5.130 -12.979  1.00  0.00    -0.000 C 
BRANCH  19  20
HETATM   20  C   UNL     1      31.670   5.547 -11.639  1.00  0.00    -0.005 C 
HETATM   21  C   UNL     1      30.166   5.292 -11.621  1.00  0.00     0.005 C 
ENDBRANCH  19  20
ENDBRANCH  18  19
ENDBRANCH  17  18
ENDBRANCH  16  17
ENDBRANCH  15  16
ENDBRANCH  14  15
ENDBRANCH  13  14
ENDBRANCH  11  12
ENDBRANCH  10  11
ENDBRANCH   9  10
ENDBRANCH   8   9
ENDBRANCH   7   8
ENDBRANCH   6   7
ENDBRANCH   5   6
ENDBRANCH   3   5
ENDBRANCH   1   3
TORSDOF 16
ENDMDL
MODEL 13
REMARK VINA RESULT:      -3.4     44.951     48.235
REMARK  16 active torsions:
REMARK  status: ('A' for Active; 'I' for Inactive)
REMARK    1  A    between atoms: O_1  and  C_20 
REMARK    2  A    between atoms: C_3  and  C_4 
REMARK    3  A    between atoms: C_3  and  C_5 
REMARK    4  A    between atoms: C_4  and  C_8 
REMARK    5  A    between atoms: C_5  and  C_11 
REMARK    6  A    between atoms: C_6  and  C_7 
REMARK    7  A    between atoms: C_6  and  C_9 
REMARK    8  A    between atoms: C_7  and  C_10 
REMARK    9  A    between atoms: C_8  and  C_12 
REMARK   10  A    between atoms: C_9  and  C_13 
REMARK   11  A    between atoms: C_10  and  C_14 
REMARK   12  A    between atoms: C_11  and  C_15 
REMARK   13  A    between atoms: C_12  and  C_16 
REMARK   14  A    between atoms: C_13  and  C_17 
REMARK   15  A    between atoms: C_14  and  C_18 
REMARK   16  A    between atoms: C_18  and  C_20 
ROOT
HETATM    1  O   UNL     1     -14.728   7.413 -19.499  1.00  0.00    -0.776 OA
HETATM    2  H   UNL     1     -15.136   8.041 -18.886  1.00  0.00     0.167 HD
ENDROOT
BRANCH   1   3
HETATM    3  C   UNL     1     -13.842   7.816 -20.434  1.00  0.00     0.139 C 
HETATM    4  O   UNL     1     -13.725   7.179 -21.473  1.00  0.00    -0.650 OA
BRANCH   3   5
HETATM    5  C   UNL     1     -13.014   9.047 -20.175  1.00  0.00     0.110 C 
BRANCH   5   6
HETATM    6  C   UNL     1     -13.417   9.786 -18.892  1.00  0.00     0.010 C 
BRANCH   6   7
HETATM    7  C   UNL     1     -14.163  11.086 -19.217  1.00  0.00     0.001 C 
BRANCH   7   8
HETATM    8  C   UNL     1     -15.672  10.916 -19.013  1.00  0.00     0.000 C 
BRANCH   8   9
HETATM    9  C   UNL     1     -16.452  12.046 -19.696  1.00  0.00     0.000 C 
BRANCH   9  10
HETATM   10  C   UNL     1     -17.943  11.960 -19.355  1.00  0.00     0.004 C 
BRANCH  10  11
HETATM   11  C   UNL     1     -18.163  11.809 -17.847  1.00  0.00     0.027 C 
BRANCH  11  12
HETATM   12  C   UNL     1     -19.620  12.045 -17.527  1.00  0.00    -0.031 C 
HETATM   13  C   UNL     1     -20.113  12.758 -16.494  1.00  0.00    -0.031 C 
BRANCH  13  14
HETATM   14  C   UNL     1     -19.322  13.475 -15.420  1.00  0.00     0.027 C 
BRANCH  14  15
HETATM   15  C   UNL     1     -19.347  12.692 -14.095  1.00  0.00     0.004 C 
BRANCH  15  16
HETATM   16  C   UNL     1     -18.534  11.381 -14.115  1.00  0.00     0.000 C 
BRANCH  16  17
HETATM   17  C   UNL     1     -17.085  11.559 -13.632  1.00  0.00     0.000 C 
BRANCH  17  18
HETATM   18  C   UNL     1     -16.123  11.719 -14.816  1.00  0.00     0.000 C 
BRANCH  18  19
HETATM   19  C   UNL     1     -14.776  11.046 -14.526  1.00  0.00    -0.000 C 
BRANCH  19  20
HETATM   20  C   UNL     1     -13.691  11.546 -15.486  1.00  0.00    -0.005 C 
HETATM   21  C   UNL     1     -12.462  10.642 -15.446  1.00  0.00     0.005 C 
ENDBRANCH  19  20
ENDBRANCH  18  19
ENDBRANCH  17  18
ENDBRANCH  16  17
ENDBRANCH  15  16
ENDBRANCH  14  15
ENDBRANCH  13  14
ENDBRANCH  11  12
ENDBRANCH  10  11
ENDBRANCH   9  10
ENDBRANCH   8   9
ENDBRANCH   7   8
ENDBRANCH   6   7
ENDBRANCH   5   6
ENDBRANCH   3   5
ENDBRANCH   1   3
TORSDOF 16
ENDMDL
MODEL 14
REMARK VINA RESULT:      -3.4      4.940      9.052
REMARK  16 active torsions:
REMARK  status: ('A' for Active; 'I' for Inactive)
REMARK    1  A    between atoms: O_1  and  C_20 
REMARK    2  A    between atoms: C_3  and  C_4 
REMARK    3  A    between atoms: C_3  and  C_5 
REMARK    4  A    between atoms: C_4  and  C_8 
REMARK    5  A    between atoms: C_5  and  C_11 
REMARK    6  A    between atoms: C_6  and  C_7 
REMARK    7  A    between atoms: C_6  and  C_9 
REMARK    8  A    between atoms: C_7  and  C_10 
REMARK    9  A    between atoms: C_8  and  C_12 
REMARK   10  A    between atoms: C_9  and  C_13 
REMARK   11  A    between atoms: C_10  and  C_14 
REMARK   12  A    between atoms: C_11  and  C_15 
REMARK   13  A    between atoms: C_12  and  C_16 
REMARK   14  A    between atoms: C_13  and  C_17 
REMARK   15  A    between atoms: C_14  and  C_18 
REMARK   16  A    between atoms: C_18  and  C_20 
ROOT
HETATM    1  O   UNL     1      31.326   6.689 -15.316  1.00  0.00    -0.776 OA
HETATM    2  H   UNL     1      30.631   6.585 -15.981  1.00  0.00     0.167 HD
ENDROOT
BRANCH   1   3
HETATM    3  C   UNL     1      31.819   5.630 -14.640  1.00  0.00     0.139 C 
HETATM    4  O   UNL     1      32.499   4.799 -15.227  1.00  0.00    -0.650 OA
BRANCH   3   5
HETATM    5  C   UNL     1      31.519   5.497 -13.170  1.00  0.00     0.110 C 
BRANCH   5   6
HETATM    6  C   UNL     1      32.782   5.428 -12.301  1.00  0.00     0.010 C 
BRANCH   6   7
HETATM    7  C   UNL     1      33.390   6.823 -12.104  1.00  0.00     0.001 C 
BRANCH   7   8
HETATM    8  C   UNL     1      33.718   7.073 -10.628  1.00  0.00     0.000 C 
BRANCH   8   9
HETATM    9  C   UNL     1      32.878   8.225 -10.064  1.00  0.00     0.000 C 
BRANCH   9  10
HETATM   10  C   UNL     1      31.463   7.749  -9.723  1.00  0.00     0.004 C 
BRANCH  10  11
HETATM   11  C   UNL     1      30.431   8.321 -10.698  1.00  0.00     0.027 C 
BRANCH  11  12
HETATM   12  C   UNL     1      30.771   9.761 -11.002  1.00  0.00    -0.031 C 
HETATM   13  C   UNL     1      30.935  10.310 -12.222  1.00  0.00    -0.031 C 
BRANCH  13  14
HETATM   14  C   UNL     1      30.824   9.611 -13.560  1.00  0.00     0.027 C 
BRANCH  14  15
HETATM   15  C   UNL     1      29.566  10.064 -14.322  1.00  0.00     0.004 C 
BRANCH  15  16
HETATM   16  C   UNL     1      28.750  11.162 -13.608  1.00  0.00     0.000 C 
BRANCH  16  17
HETATM   17  C   UNL     1      28.478  12.388 -14.494  1.00  0.00     0.000 C 
BRANCH  17  18
HETATM   18  C   UNL     1      29.431  12.425 -15.695  1.00  0.00     0.000 C 
BRANCH  18  19
HETATM   19  C   UNL     1      28.721  12.958 -16.945  1.00  0.00    -0.000 C 
BRANCH  19  20
HETATM   20  C   UNL     1      29.145  12.180 -18.196  1.00  0.00    -0.005 C 
HETATM   21  C   UNL     1      30.215  11.145 -17.864  1.00  0.00     0.005 C 
ENDBRANCH  19  20
ENDBRANCH  18  19
ENDBRANCH  17  18
ENDBRANCH  16  17
ENDBRANCH  15  16
ENDBRANCH  14  15
ENDBRANCH  13  14
ENDBRANCH  11  12
ENDBRANCH  10  11
ENDBRANCH   9  10
ENDBRANCH   8   9
ENDBRANCH   7   8
ENDBRANCH   6   7
ENDBRANCH   5   6
ENDBRANCH   3   5
ENDBRANCH   1   3
TORSDOF 16
ENDMDL
MODEL 15
REMARK VINA RESULT:      -3.4     37.165     39.165
REMARK  16 active torsions:
REMARK  status: ('A' for Active; 'I' for Inactive)
REMARK    1  A    between atoms: O_1  and  C_20 
REMARK    2  A    between atoms: C_3  and  C_4 
REMARK    3  A    between atoms: C_3  and  C_5 
REMARK    4  A    between atoms: C_4  and  C_8 
REMARK    5  A    between atoms: C_5  and  C_11 
REMARK    6  A    between atoms: C_6  and  C_7 
REMARK    7  A    between atoms: C_6  and  C_9 
REMARK    8  A    between atoms: C_7  and  C_10 
REMARK    9  A    between atoms: C_8  and  C_12 
REMARK   10  A    between atoms: C_9  and  C_13 
REMARK   11  A    between atoms: C_10  and  C_14 
REMARK   12  A    between atoms: C_11  and  C_15 
REMARK   13  A    between atoms: C_12  and  C_16 
REMARK   14  A    between atoms: C_13  and  C_17 
REMARK   15  A    between atoms: C_14  and  C_18 
REMARK   16  A    between atoms: C_18  and  C_20 
ROOT
HETATM    1  O   UNL     1      -6.003  16.150  -5.303  1.00  0.00    -0.776 OA
HETATM    2  H   UNL     1      -5.636  16.337  -4.427  1.00  0.00     0.167 HD
ENDROOT
BRANCH   1   3
HETATM    3  C   UNL     1      -5.366  15.344  -6.177  1.00  0.00     0.139 C 
HETATM    4  O   UNL     1      -4.237  14.945  -5.923  1.00  0.00    -0.650 OA
BRANCH   3   5
HETATM    5  C   UNL     1      -6.063  14.952  -7.453  1.00  0.00     0.110 C 
BRANCH   5   6
HETATM    6  C   UNL     1      -5.602  15.770  -8.668  1.00  0.00     0.010 C 
BRANCH   6   7
HETATM    7  C   UNL     1      -5.866  15.010  -9.974  1.00  0.00     0.001 C 
BRANCH   7   8
HETATM    8  C   UNL     1      -4.677  15.141 -10.932  1.00  0.00     0.000 C 
BRANCH   8   9
HETATM    9  C   UNL     1      -4.464  16.601 -11.350  1.00  0.00     0.000 C 
BRANCH   9  10
HETATM   10  C   UNL     1      -5.681  17.130 -12.117  1.00  0.00     0.004 C 
BRANCH  10  11
HETATM   11  C   UNL     1      -5.520  16.932 -13.626  1.00  0.00     0.027 C 
BRANCH  11  12
HETATM   12  C   UNL     1      -6.404  15.795 -14.081  1.00  0.00    -0.031 C 
HETATM   13  C   UNL     1      -6.278  15.080 -15.217  1.00  0.00    -0.031 C 
BRANCH  13  14
HETATM   14  C   UNL     1      -5.230  15.258 -16.295  1.00  0.00     0.027 C 
BRANCH  14  15
HETATM   15  C   UNL     1      -5.879  15.400 -17.684  1.00  0.00     0.004 C 
BRANCH  15  16
HETATM   16  C   UNL     1      -7.141  16.287 -17.709  1.00  0.00     0.000 C 
BRANCH  16  17
HETATM   17  C   UNL     1      -6.842  17.756 -18.050  1.00  0.00     0.000 C 
BRANCH  17  18
HETATM   18  C   UNL     1      -6.662  18.593 -16.777  1.00  0.00     0.000 C 
BRANCH  18  19
HETATM   19  C   UNL     1      -5.473  19.551 -16.912  1.00  0.00    -0.000 C 
BRANCH  19  20
HETATM   20  C   UNL     1      -4.172  18.783 -17.172  1.00  0.00    -0.005 C 
HETATM   21  C   UNL     1      -3.385  18.582 -15.881  1.00  0.00     0.005 C 
ENDBRANCH  19  20
ENDBRANCH  18  19
ENDBRANCH  17  18
ENDBRANCH  16  17
ENDBRANCH  15  16
ENDBRANCH  14  15
ENDBRANCH  13  14
ENDBRANCH  11  12
ENDBRANCH  10  11
ENDBRANCH   9  10
ENDBRANCH   8   9
ENDBRANCH   7   8
ENDBRANCH   6   7
ENDBRANCH   5   6
ENDBRANCH   3   5
ENDBRANCH   1   3
TORSDOF 16
ENDMDL
MODEL 16
REMARK VINA RESULT:      -3.4      3.493      5.649
REMARK  16 active torsions:
REMARK  status: ('A' for Active; 'I' for Inactive)
REMARK    1  A    between atoms: O_1  and  C_20 
REMARK    2  A    between atoms: C_3  and  C_4 
REMARK    3  A    between atoms: C_3  and  C_5 
REMARK    4  A    between atoms: C_4  and  C_8 
REMARK    5  A    between atoms: C_5  and  C_11 
REMARK    6  A    between atoms: C_6  and  C_7 
REMARK    7  A    between atoms: C_6  and  C_9 
REMARK    8  A    between atoms: C_7  and  C_10 
REMARK    9  A    between atoms: C_8  and  C_12 
REMARK   10  A    between atoms: C_9  and  C_13 
REMARK   11  A    between atoms: C_10  and  C_14 
REMARK   12  A    between atoms: C_11  and  C_15 
REMARK   13  A    between atoms: C_12  and  C_16 
REMARK   14  A    between atoms: C_13  and  C_17 
REMARK   15  A    between atoms: C_14  and  C_18 
REMARK   16  A    between atoms: C_18  and  C_20 
ROOT
HETATM    1  O   UNL     1      30.656   4.916 -12.838  1.00  0.00    -0.776 OA
HETATM    2  H   UNL     1      30.279   5.464 -12.135  1.00  0.00     0.167 HD
ENDROOT
BRANCH   1   3
HETATM    3  C   UNL     1      31.808   5.254 -13.454  1.00  0.00     0.139 C 
HETATM    4  O   UNL     1      32.871   5.145 -12.857  1.00  0.00    -0.650 OA
BRANCH   3   5
HETATM    5  C   UNL     1      31.757   5.761 -14.872  1.00  0.00     0.110 C 
BRANCH   5   6
HETATM    6  C   UNL     1      32.949   6.657 -15.235  1.00  0.00     0.010 C 
BRANCH   6   7
HETATM    7  C   UNL     1      33.042   6.860 -16.752  1.00  0.00     0.001 C 
BRANCH   7   8
HETATM    8  C   UNL     1      33.014   8.350 -17.108  1.00  0.00     0.000 C 
BRANCH   8   9
HETATM    9  C   UNL     1      34.429   8.940 -17.127  1.00  0.00     0.000 C 
BRANCH   9  10
HETATM   10  C   UNL     1      34.411  10.378 -17.656  1.00  0.00     0.004 C 
BRANCH  10  11
HETATM   11  C   UNL     1      32.985  10.933 -17.715  1.00  0.00     0.027 C 
BRANCH  11  12
HETATM   12  C   UNL     1      32.775  11.635 -19.036  1.00  0.00    -0.031 C 
HETATM   13  C   UNL     1      31.594  11.900 -19.629  1.00  0.00    -0.031 C 
BRANCH  13  14
HETATM   14  C   UNL     1      30.214  11.547 -19.113  1.00  0.00     0.027 C 
BRANCH  14  15
HETATM   15  C   UNL     1      29.631  10.338 -19.866  1.00  0.00     0.004 C 
BRANCH  15  16
HETATM   16  C   UNL     1      30.140   8.971 -19.366  1.00  0.00     0.000 C 
BRANCH  16  17
HETATM   17  C   UNL     1      30.704   8.086 -20.490  1.00  0.00     0.000 C 
BRANCH  17  18
HETATM   18  C   UNL     1      32.194   8.369 -20.722  1.00  0.00     0.000 C 
BRANCH  18  19
HETATM   19  C   UNL     1      32.987   7.063 -20.853  1.00  0.00    -0.000 C 
BRANCH  19  20
HETATM   20  C   UNL     1      34.443   7.255 -20.411  1.00  0.00    -0.005 C 
HETATM   21  C   UNL     1      34.990   8.597 -20.885  1.00  0.00     0.005 C 
ENDBRANCH  19  20
ENDBRANCH  18  19
ENDBRANCH  17  18
ENDBRANCH  16  17
ENDBRANCH  15  16
ENDBRANCH  14  15
ENDBRANCH  13  14
ENDBRANCH  11  12
ENDBRANCH  10  11
ENDBRANCH   9  10
ENDBRANCH   8   9
ENDBRANCH   7   8
ENDBRANCH   6   7
ENDBRANCH   5   6
ENDBRANCH   3   5
ENDBRANCH   1   3
TORSDOF 16
ENDMDL
MODEL 17
REMARK VINA RESULT:      -3.4     39.894     41.587
REMARK  16 active torsions:
REMARK  status: ('A' for Active; 'I' for Inactive)
REMARK    1  A    between atoms: O_1  and  C_20 
REMARK    2  A    between atoms: C_3  and  C_4 
REMARK    3  A    between atoms: C_3  and  C_5 
REMARK    4  A    between atoms: C_4  and  C_8 
REMARK    5  A    between atoms: C_5  and  C_11 
REMARK    6  A    between atoms: C_6  and  C_7 
REMARK    7  A    between atoms: C_6  and  C_9 
REMARK    8  A    between atoms: C_7  and  C_10 
REMARK    9  A    between atoms: C_8  and  C_12 
REMARK   10  A    between atoms: C_9  and  C_13 
REMARK   11  A    between atoms: C_10  and  C_14 
REMARK   12  A    between atoms: C_11  and  C_15 
REMARK   13  A    between atoms: C_12  and  C_16 
REMARK   14  A    between atoms: C_13  and  C_17 
REMARK   15  A    between atoms: C_14  and  C_18 
REMARK   16  A    between atoms: C_18  and  C_20 
ROOT
HETATM    1  O   UNL     1      -1.281  -5.852 -11.234  1.00  0.00    -0.776 OA
HETATM    2  H   UNL     1      -1.116  -5.232 -10.509  1.00  0.00     0.167 HD
ENDROOT
BRANCH   1   3
HETATM    3  C   UNL     1      -1.644  -7.130 -11.000  1.00  0.00     0.139 C 
HETATM    4  O   UNL     1      -1.975  -7.471  -9.873  1.00  0.00    -0.650 OA
BRANCH   3   5
HETATM    5  C   UNL     1      -1.633  -8.114 -12.141  1.00  0.00     0.110 C 
BRANCH   5   6
HETATM    6  C   UNL     1      -2.899  -8.049 -13.006  1.00  0.00     0.010 C 
BRANCH   6   7
HETATM    7  C   UNL     1      -2.571  -7.566 -14.425  1.00  0.00     0.001 C 
BRANCH   7   8
HETATM    8  C   UNL     1      -3.850  -7.386 -15.250  1.00  0.00     0.000 C 
BRANCH   8   9
HETATM    9  C   UNL     1      -5.097  -7.672 -14.405  1.00  0.00     0.000 C 
BRANCH   9  10
HETATM   10  C   UNL     1      -6.250  -8.163 -15.287  1.00  0.00     0.004 C 
BRANCH  10  11
HETATM   11  C   UNL     1      -7.013  -9.311 -14.620  1.00  0.00     0.027 C 
BRANCH  11  12
HETATM   12  C   UNL     1      -6.306  -9.711 -13.347  1.00  0.00    -0.031 C 
HETATM   13  C   UNL     1      -6.882 -10.134 -12.204  1.00  0.00    -0.031 C 
BRANCH  13  14
HETATM   14  C   UNL     1      -8.363 -10.294 -11.933  1.00  0.00     0.027 C 
BRANCH  14  15
HETATM   15  C   UNL     1      -9.020  -8.939 -11.615  1.00  0.00     0.004 C 
BRANCH  15  16
HETATM   16  C   UNL     1      -9.042  -8.579 -10.116  1.00  0.00     0.000 C 
BRANCH  16  17
HETATM   17  C   UNL     1      -8.794  -9.787  -9.198  1.00  0.00     0.000 C 
BRANCH  17  18
HETATM   18  C   UNL     1      -7.519  -9.598  -8.367  1.00  0.00     0.000 C 
BRANCH  18  19
HETATM   19  C   UNL     1      -6.964  -8.177  -8.527  1.00  0.00    -0.000 C 
BRANCH  19  20
HETATM   20  C   UNL     1      -5.542  -8.201  -9.102  1.00  0.00    -0.005 C 
HETATM   21  C   UNL     1      -5.443  -7.347 -10.361  1.00  0.00     0.005 C 
ENDBRANCH  19  20
ENDBRANCH  18  19
ENDBRANCH  17  18
ENDBRANCH  16  17
ENDBRANCH  15  16
ENDBRANCH  14  15
ENDBRANCH  13  14
ENDBRANCH  11  12
ENDBRANCH  10  11
ENDBRANCH   9  10
ENDBRANCH   8   9
ENDBRANCH   7   8
ENDBRANCH   6   7
ENDBRANCH   5   6
ENDBRANCH   3   5
ENDBRANCH   1   3
TORSDOF 16
ENDMDL
MODEL 18
REMARK VINA RESULT:      -3.3     31.715     33.198
REMARK  16 active torsions:
REMARK  status: ('A' for Active; 'I' for Inactive)
REMARK    1  A    between atoms: O_1  and  C_20 
REMARK    2  A    between atoms: C_3  and  C_4 
REMARK    3  A    between atoms: C_3  and  C_5 
REMARK    4  A    between atoms: C_4  and  C_8 
REMARK    5  A    between atoms: C_5  and  C_11 
REMARK    6  A    between atoms: C_6  and  C_7 
REMARK    7  A    between atoms: C_6  and  C_9 
REMARK    8  A    between atoms: C_7  and  C_10 
REMARK    9  A    between atoms: C_8  and  C_12 
REMARK   10  A    between atoms: C_9  and  C_13 
REMARK   11  A    between atoms: C_10  and  C_14 
REMARK   12  A    between atoms: C_11  and  C_15 
REMARK   13  A    between atoms: C_12  and  C_16 
REMARK   14  A    between atoms: C_13  and  C_17 
REMARK   15  A    between atoms: C_14  and  C_18 
REMARK   16  A    between atoms: C_18  and  C_20 
ROOT
HETATM    1  O   UNL     1       8.534 -11.691  -6.004  1.00  0.00    -0.776 OA
HETATM    2  H   UNL     1       8.519 -10.743  -6.203  1.00  0.00     0.167 HD
ENDROOT
BRANCH   1   3
HETATM    3  C   UNL     1       7.532 -12.508  -6.392  1.00  0.00     0.139 C 
HETATM    4  O   UNL     1       6.463 -12.482  -5.798  1.00  0.00    -0.650 OA
BRANCH   3   5
HETATM    5  C   UNL     1       7.757 -13.439  -7.554  1.00  0.00     0.110 C 
BRANCH   5   6
HETATM    6  C   UNL     1       8.353 -12.737  -8.783  1.00  0.00     0.010 C 
BRANCH   6   7
HETATM    7  C   UNL     1       7.683 -13.224 -10.073  1.00  0.00     0.001 C 
BRANCH   7   8
HETATM    8  C   UNL     1       8.553 -12.909 -11.294  1.00  0.00     0.000 C 
BRANCH   8   9
HETATM    9  C   UNL     1       9.679 -13.939 -11.450  1.00  0.00     0.000 C 
BRANCH   9  10
HETATM   10  C   UNL     1       9.115 -15.299 -11.876  1.00  0.00     0.004 C 
BRANCH  10  11
HETATM   11  C   UNL     1       9.087 -15.439 -13.400  1.00  0.00     0.027 C 
BRANCH  11  12
HETATM   12  C   UNL     1       7.673 -15.248 -13.895  1.00  0.00    -0.031 C 
HETATM   13  C   UNL     1       7.191 -14.184 -14.569  1.00  0.00    -0.031 C 
BRANCH  13  14
HETATM   14  C   UNL     1       7.953 -12.939 -14.973  1.00  0.00     0.027 C 
BRANCH  14  15
HETATM   15  C   UNL     1       8.993 -13.253 -16.063  1.00  0.00     0.004 C 
BRANCH  15  16
HETATM   16  C   UNL     1       8.391 -13.561 -17.449  1.00  0.00     0.000 C 
BRANCH  16  17
HETATM   17  C   UNL     1       9.310 -14.420 -18.333  1.00  0.00     0.000 C 
BRANCH  17  18
HETATM   18  C   UNL     1       8.575 -14.904 -19.589  1.00  0.00     0.000 C 
BRANCH  18  19
HETATM   19  C   UNL     1       8.960 -14.061 -20.811  1.00  0.00    -0.000 C 
BRANCH  19  20
HETATM   20  C   UNL     1       7.719 -13.465 -21.484  1.00  0.00    -0.005 C 
HETATM   21  C   UNL     1       6.447 -13.850 -20.735  1.00  0.00     0.005 C 
ENDBRANCH  19  20
ENDBRANCH  18  19
ENDBRANCH  17  18
ENDBRANCH  16  17
ENDBRANCH  15  16
ENDBRANCH  14  15
ENDBRANCH  13  14
ENDBRANCH  11  12
ENDBRANCH  10  11
ENDBRANCH   9  10
ENDBRANCH   8   9
ENDBRANCH   7   8
ENDBRANCH   6   7
ENDBRANCH   5   6
ENDBRANCH   3   5
ENDBRANCH   1   3
TORSDOF 16
ENDMDL
MODEL 19
REMARK VINA RESULT:      -3.3      6.733     10.345
REMARK  16 active torsions:
REMARK  status: ('A' for Active; 'I' for Inactive)
REMARK    1  A    between atoms: O_1  and  C_20 
REMARK    2  A    between atoms: C_3  and  C_4 
REMARK    3  A    between atoms: C_3  and  C_5 
REMARK    4  A    between atoms: C_4  and  C_8 
REMARK    5  A    between atoms: C_5  and  C_11 
REMARK    6  A    between atoms: C_6  and  C_7 
REMARK    7  A    between atoms: C_6  and  C_9 
REMARK    8  A    between atoms: C_7  and  C_10 
REMARK    9  A    between atoms: C_8  and  C_12 
REMARK   10  A    between atoms: C_9  and  C_13 
REMARK   11  A    between atoms: C_10  and  C_14 
REMARK   12  A    between atoms: C_11  and  C_15 
REMARK   13  A    between atoms: C_12  and  C_16 
REMARK   14  A    between atoms: C_13  and  C_17 
REMARK   15  A    between atoms: C_14  and  C_18 
REMARK   16  A    between atoms: C_18  and  C_20 
ROOT
HETATM    1  O   UNL     1      30.562   4.789 -13.109  1.00  0.00    -0.776 OA
HETATM    2  H   UNL     1      30.506   4.957 -12.157  1.00  0.00     0.167 HD
ENDROOT
BRANCH   1   3
HETATM    3  C   UNL     1      31.506   5.375 -13.874  1.00  0.00     0.139 C 
HETATM    4  O   UNL     1      32.660   4.970 -13.831  1.00  0.00    -0.650 OA
BRANCH   3   5
HETATM    5  C   UNL     1      31.114   6.521 -14.769  1.00  0.00     0.110 C 
BRANCH   5   6
HETATM    6  C   UNL     1      31.951   7.786 -14.531  1.00  0.00     0.010 C 
BRANCH   6   7
HETATM    7  C   UNL     1      31.430   8.569 -13.320  1.00  0.00     0.001 C 
BRANCH   7   8
HETATM    8  C   UNL     1      32.329   8.349 -12.099  1.00  0.00     0.000 C 
BRANCH   8   9
HETATM    9  C   UNL     1      33.786   8.124 -12.520  1.00  0.00     0.000 C 
BRANCH   9  10
HETATM   10  C   UNL     1      34.684   7.941 -11.292  1.00  0.00     0.004 C 
BRANCH  10  11
HETATM   11  C   UNL     1      33.882   7.459 -10.080  1.00  0.00     0.027 C 
BRANCH  11  12
HETATM   12  C   UNL     1      34.198   8.332  -8.889  1.00  0.00    -0.031 C 
HETATM   13  C   UNL     1      33.529   8.372  -7.719  1.00  0.00    -0.031 C 
BRANCH  13  14
HETATM   14  C   UNL     1      32.309   7.561  -7.337  1.00  0.00     0.027 C 
BRANCH  14  15
HETATM   15  C   UNL     1      31.022   8.394  -7.473  1.00  0.00     0.004 C 
BRANCH  15  16
HETATM   16  C   UNL     1      30.557   8.613  -8.927  1.00  0.00     0.000 C 
BRANCH  16  17
HETATM   17  C   UNL     1      29.852   9.962  -9.142  1.00  0.00     0.000 C 
BRANCH  17  18
HETATM   18  C   UNL     1      30.661  10.866 -10.082  1.00  0.00     0.000 C 
BRANCH  18  19
HETATM   19  C   UNL     1      29.741  11.819 -10.854  1.00  0.00    -0.000 C 
BRANCH  19  20
HETATM   20  C   UNL     1      30.402  12.292 -12.154  1.00  0.00    -0.005 C 
HETATM   21  C   UNL     1      31.890  12.558 -11.950  1.00  0.00     0.005 C 
ENDBRANCH  19  20
ENDBRANCH  18  19
ENDBRANCH  17  18
ENDBRANCH  16  17
ENDBRANCH  15  16
ENDBRANCH  14  15
ENDBRANCH  13  14
ENDBRANCH  11  12
ENDBRANCH  10  11
ENDBRANCH   9  10
ENDBRANCH   8   9
ENDBRANCH   7   8
ENDBRANCH   6   7
ENDBRANCH   5   6
ENDBRANCH   3   5
ENDBRANCH   1   3
TORSDOF 16
ENDMDL
MODEL 20
REMARK VINA RESULT:      -3.3      8.081     11.974
REMARK  16 active torsions:
REMARK  status: ('A' for Active; 'I' for Inactive)
REMARK    1  A    between atoms: O_1  and  C_20 
REMARK    2  A    between atoms: C_3  and  C_4 
REMARK    3  A    between atoms: C_3  and  C_5 
REMARK    4  A    between atoms: C_4  and  C_8 
REMARK    5  A    between atoms: C_5  and  C_11 
REMARK    6  A    between atoms: C_6  and  C_7 
REMARK    7  A    between atoms: C_6  and  C_9 
REMARK    8  A    between atoms: C_7  and  C_10 
REMARK    9  A    between atoms: C_8  and  C_12 
REMARK   10  A    between atoms: C_9  and  C_13 
REMARK   11  A    between atoms: C_10  and  C_14 
REMARK   12  A    between atoms: C_11  and  C_15 
REMARK   13  A    between atoms: C_12  and  C_16 
REMARK   14  A    between atoms: C_13  and  C_17 
REMARK   15  A    between atoms: C_14  and  C_18 
REMARK   16  A    between atoms: C_18  and  C_20 
ROOT
HETATM    1  O   UNL     1      31.724   4.585 -12.395  1.00  0.00    -0.776 OA
HETATM    2  H   UNL     1      30.821   4.535 -12.052  1.00  0.00     0.167 HD
ENDROOT
BRANCH   1   3
HETATM    3  C   UNL     1      32.464   5.707 -12.274  1.00  0.00     0.139 C 
HETATM    4  O   UNL     1      33.056   6.152 -13.248  1.00  0.00    -0.650 OA
BRANCH   3   5
HETATM    5  C   UNL     1      32.543   6.389 -10.933  1.00  0.00     0.110 C 
BRANCH   5   6
HETATM    6  C   UNL     1      33.222   5.529  -9.858  1.00  0.00     0.010 C 
BRANCH   6   7
HETATM    7  C   UNL     1      32.772   5.949  -8.453  1.00  0.00     0.001 C 
BRANCH   7   8
HETATM    8  C   UNL     1      31.495   5.207  -8.043  1.00  0.00     0.000 C 
BRANCH   8   9
HETATM    9  C   UNL     1      30.592   6.097  -7.181  1.00  0.00     0.000 C 
BRANCH   9  10
HETATM   10  C   UNL     1      31.071   6.107  -5.725  1.00  0.00     0.004 C 
BRANCH  10  11
HETATM   11  C   UNL     1      31.496   7.510  -5.286  1.00  0.00     0.027 C 
BRANCH  11  12
HETATM   12  C   UNL     1      30.425   8.503  -5.670  1.00  0.00    -0.031 C 
HETATM   13  C   UNL     1      30.566   9.567  -6.484  1.00  0.00    -0.031 C 
BRANCH  13  14
HETATM   14  C   UNL     1      31.829  10.015  -7.191  1.00  0.00     0.027 C 
BRANCH  14  15
HETATM   15  C   UNL     1      31.901   9.441  -8.617  1.00  0.00     0.004 C 
BRANCH  15  16
HETATM   16  C   UNL     1      30.530   9.103  -9.237  1.00  0.00     0.000 C 
BRANCH  16  17
HETATM   17  C   UNL     1      30.261   9.845 -10.557  1.00  0.00     0.000 C 
BRANCH  17  18
HETATM   18  C   UNL     1      31.567  10.357 -11.178  1.00  0.00     0.000 C 
BRANCH  18  19
HETATM   19  C   UNL     1      31.858   9.650 -12.507  1.00  0.00    -0.000 C 
BRANCH  19  20
HETATM   20  C   UNL     1      30.603   8.956 -13.049  1.00  0.00    -0.005 C 
HETATM   21  C   UNL     1      30.808   8.493 -14.488  1.00  0.00     0.005 C 
ENDBRANCH  19  20
ENDBRANCH  18  19
ENDBRANCH  17  18
ENDBRANCH  16  17
ENDBRANCH  15  16
ENDBRANCH  14  15
ENDBRANCH  13  14
ENDBRANCH  11  12
ENDBRANCH  10  11
ENDBRANCH   9  10
ENDBRANCH   8   9
ENDBRANCH   7   8
ENDBRANCH   6   7
ENDBRANCH   5   6
ENDBRANCH   3   5
ENDBRANCH   1   3
TORSDOF 16
ENDMDL
