MODEL 1
REMARK VINA RESULT:      -4.0      0.000      0.000
REMARK  15 active torsions:
REMARK  status: ('A' for Active; 'I' for Inactive)
REMARK    1  A    between atoms: O_1  and  C_18 
REMARK    2  A    between atoms: C_3  and  C_4 
REMARK    3  A    between atoms: C_3  and  C_5 
REMARK    4  A    between atoms: C_4  and  C_6 
REMARK    5  A    between atoms: C_5  and  C_7 
REMARK    6  A    between atoms: C_6  and  C_8 
REMARK    7  A    between atoms: C_7  and  C_9 
REMARK    8  A    between atoms: C_8  and  C_10 
REMARK    9  A    between atoms: C_9  and  C_11 
REMARK   10  A    between atoms: C_10  and  C_12 
REMARK   11  A    between atoms: C_11  and  C_13 
REMARK   12  A    between atoms: C_12  and  C_14 
REMARK   13  A    between atoms: C_13  and  C_15 
REMARK   14  A    between atoms: C_14  and  C_16 
REMARK   15  A    between atoms: C_16  and  C_18 
ROOT
HETATM    1  O   UNL     1      32.026   4.606 -12.399  1.00  0.00    -0.776 OA
HETATM    2  H   UNL     1      32.662   4.850 -11.712  1.00  0.00     0.167 HD
ENDROOT
BRANCH   1   3
HETATM    3  C   UNL     1      31.550   5.518 -13.274  1.00  0.00     0.139 C 
HETATM    4  O   UNL     1      30.814   6.411 -12.879  1.00  0.00    -0.650 OA
BRANCH   3   5
HETATM    5  C   UNL     1      31.943   5.412 -14.724  1.00  0.00     0.110 C 
BRANCH   5   6
HETATM    6  C   UNL     1      30.743   5.489 -15.681  1.00  0.00     0.010 C 
BRANCH   6   7
HETATM    7  C   UNL     1      31.124   6.199 -16.985  1.00  0.00     0.001 C 
BRANCH   7   8
HETATM    8  C   UNL     1      31.630   5.196 -18.029  1.00  0.00     0.000 C 
BRANCH   8   9
HETATM    9  C   UNL     1      30.988   5.455 -19.397  1.00  0.00     0.000 C 
BRANCH   9  10
HETATM   10  C   UNL     1      32.019   5.315 -20.524  1.00  0.00     0.000 C 
BRANCH  10  11
HETATM   11  C   UNL     1      33.439   5.572 -20.005  1.00  0.00     0.000 C 
BRANCH  11  12
HETATM   12  C   UNL     1      33.915   6.981 -20.378  1.00  0.00     0.000 C 
BRANCH  12  13
HETATM   13  C   UNL     1      33.845   7.923 -19.172  1.00  0.00     0.000 C 
BRANCH  13  14
HETATM   14  C   UNL     1      32.745   8.976 -19.359  1.00  0.00     0.000 C 
BRANCH  14  15
HETATM   15  C   UNL     1      32.314   9.065 -20.828  1.00  0.00     0.000 C 
BRANCH  15  16
HETATM   16  C   UNL     1      30.793   8.929 -20.964  1.00  0.00     0.000 C 
BRANCH  16  17
HETATM   17  C   UNL     1      30.110   8.994 -19.592  1.00  0.00    -0.000 C 
BRANCH  17  18
HETATM   18  C   UNL     1      29.068  10.117 -19.551  1.00  0.00    -0.005 C 
HETATM   19  C   UNL     1      29.632  11.368 -18.883  1.00  0.00     0.005 C 
ENDBRANCH  17  18
ENDBRANCH  16  17
ENDBRANCH  15  16
ENDBRANCH  14  15
ENDBRANCH  13  14
ENDBRANCH  12  13
ENDBRANCH  11  12
ENDBRANCH  10  11
ENDBRANCH   9  10
ENDBRANCH   8   9
ENDBRANCH   7   8
ENDBRANCH   6   7
ENDBRANCH   5   6
ENDBRANCH   3   5
ENDBRANCH   1   3
TORSDOF 15
ENDMDL
MODEL 2
REMARK VINA RESULT:      -4.0      8.087     10.585
REMARK  15 active torsions:
REMARK  status: ('A' for Active; 'I' for Inactive)
REMARK    1  A    between atoms: O_1  and  C_18 
REMARK    2  A    between atoms: C_3  and  C_4 
REMARK    3  A    between atoms: C_3  and  C_5 
REMARK    4  A    between atoms: C_4  and  C_6 
REMARK    5  A    between atoms: C_5  and  C_7 
REMARK    6  A    between atoms: C_6  and  C_8 
REMARK    7  A    between atoms: C_7  and  C_9 
REMARK    8  A    between atoms: C_8  and  C_10 
REMARK    9  A    between atoms: C_9  and  C_11 
REMARK   10  A    between atoms: C_10  and  C_12 
REMARK   11  A    between atoms: C_11  and  C_13 
REMARK   12  A    between atoms: C_12  and  C_14 
REMARK   13  A    between atoms: C_13  and  C_15 
REMARK   14  A    between atoms: C_14  and  C_16 
REMARK   15  A    between atoms: C_16  and  C_18 
ROOT
HETATM    1  O   UNL     1      34.252   5.048 -10.867  1.00  0.00    -0.776 OA
HETATM    2  H   UNL     1      34.782   4.765 -11.625  1.00  0.00     0.167 HD
ENDROOT
BRANCH   1   3
HETATM    3  C   UNL     1      32.903   5.073 -10.919  1.00  0.00     0.139 C 
HETATM    4  O   UNL     1      32.307   4.244 -11.593  1.00  0.00    -0.650 OA
BRANCH   3   5
HETATM    5  C   UNL     1      32.161   6.127 -10.140  1.00  0.00     0.110 C 
BRANCH   5   6
HETATM    6  C   UNL     1      31.261   5.543  -9.040  1.00  0.00     0.010 C 
BRANCH   6   7
HETATM    7  C   UNL     1      32.097   5.012  -7.871  1.00  0.00     0.001 C 
BRANCH   7   8
HETATM    8  C   UNL     1      31.395   5.267  -6.532  1.00  0.00     0.000 C 
BRANCH   8   9
HETATM    9  C   UNL     1      32.352   5.909  -5.520  1.00  0.00     0.000 C 
BRANCH   9  10
HETATM   10  C   UNL     1      33.703   6.230  -6.170  1.00  0.00     0.000 C 
BRANCH  10  11
HETATM   11  C   UNL     1      34.368   7.433  -5.490  1.00  0.00     0.000 C 
BRANCH  11  12
HETATM   12  C   UNL     1      34.651   8.550  -6.502  1.00  0.00     0.000 C 
BRANCH  12  13
HETATM   13  C   UNL     1      33.703   8.459  -7.702  1.00  0.00     0.000 C 
BRANCH  13  14
HETATM   14  C   UNL     1      32.634   9.558  -7.643  1.00  0.00     0.000 C 
BRANCH  14  15
HETATM   15  C   UNL     1      31.225   8.954  -7.624  1.00  0.00     0.000 C 
BRANCH  15  16
HETATM   16  C   UNL     1      30.462   9.298  -8.908  1.00  0.00     0.000 C 
BRANCH  16  17
HETATM   17  C   UNL     1      30.144  10.796  -8.975  1.00  0.00    -0.000 C 
BRANCH  17  18
HETATM   18  C   UNL     1      28.674  11.031  -9.341  1.00  0.00    -0.005 C 
HETATM   19  C   UNL     1      28.468  12.425  -9.928  1.00  0.00     0.005 C 
ENDBRANCH  17  18
ENDBRANCH  16  17
ENDBRANCH  15  16
ENDBRANCH  14  15
ENDBRANCH  13  14
ENDBRANCH  12  13
ENDBRANCH  11  12
ENDBRANCH  10  11
ENDBRANCH   9  10
ENDBRANCH   8   9
ENDBRANCH   7   8
ENDBRANCH   6   7
ENDBRANCH   5   6
ENDBRANCH   3   5
ENDBRANCH   1   3
TORSDOF 15
ENDMDL
MODEL 3
REMARK VINA RESULT:      -3.9      2.994      5.460
REMARK  15 active torsions:
REMARK  status: ('A' for Active; 'I' for Inactive)
REMARK    1  A    between atoms: O_1  and  C_18 
REMARK    2  A    between atoms: C_3  and  C_4 
REMARK    3  A    between atoms: C_3  and  C_5 
REMARK    4  A    between atoms: C_4  and  C_6 
REMARK    5  A    between atoms: C_5  and  C_7 
REMARK    6  A    between atoms: C_6  and  C_8 
REMARK    7  A    between atoms: C_7  and  C_9 
REMARK    8  A    between atoms: C_8  and  C_10 
REMARK    9  A    between atoms: C_9  and  C_11 
REMARK   10  A    between atoms: C_10  and  C_12 
REMARK   11  A    between atoms: C_11  and  C_13 
REMARK   12  A    between atoms: C_12  and  C_14 
REMARK   13  A    between atoms: C_13  and  C_15 
REMARK   14  A    between atoms: C_14  and  C_16 
REMARK   15  A    between atoms: C_16  and  C_18 
ROOT
HETATM    1  O   UNL     1      28.602  10.588 -13.497  1.00  0.00    -0.776 OA
HETATM    2  H   UNL     1      28.852  10.208 -12.643  1.00  0.00     0.167 HD
ENDROOT
BRANCH   1   3
HETATM    3  C   UNL     1      29.189  10.187 -14.645  1.00  0.00     0.139 C 
HETATM    4  O   UNL     1      28.513  10.042 -15.653  1.00  0.00    -0.650 OA
BRANCH   3   5
HETATM    5  C   UNL     1      30.673   9.928 -14.655  1.00  0.00     0.110 C 
BRANCH   5   6
HETATM    6  C   UNL     1      31.199   9.484 -16.028  1.00  0.00     0.010 C 
BRANCH   6   7
HETATM    7  C   UNL     1      32.042  10.587 -16.677  1.00  0.00     0.001 C 
BRANCH   7   8
HETATM    8  C   UNL     1      32.676  10.098 -17.986  1.00  0.00     0.000 C 
BRANCH   8   9
HETATM    9  C   UNL     1      33.706   8.994 -17.720  1.00  0.00     0.000 C 
BRANCH   9  10
HETATM   10  C   UNL     1      34.829   9.499 -16.807  1.00  0.00     0.000 C 
BRANCH  10  11
HETATM   11  C   UNL     1      34.940   8.637 -15.543  1.00  0.00     0.000 C 
BRANCH  11  12
HETATM   12  C   UNL     1      34.285   7.266 -15.751  1.00  0.00     0.000 C 
BRANCH  12  13
HETATM   13  C   UNL     1      33.326   6.934 -14.603  1.00  0.00     0.000 C 
BRANCH  13  14
HETATM   14  C   UNL     1      32.957   5.446 -14.607  1.00  0.00     0.000 C 
BRANCH  14  15
HETATM   15  C   UNL     1      31.441   5.254 -14.473  1.00  0.00     0.000 C 
BRANCH  15  16
HETATM   16  C   UNL     1      30.689   6.045 -15.549  1.00  0.00     0.000 C 
BRANCH  16  17
HETATM   17  C   UNL     1      30.663   5.280 -16.877  1.00  0.00    -0.000 C 
BRANCH  17  18
HETATM   18  C   UNL     1      31.422   6.044 -17.968  1.00  0.00    -0.005 C 
HETATM   19  C   UNL     1      31.107   5.486 -19.353  1.00  0.00     0.005 C 
ENDBRANCH  17  18
ENDBRANCH  16  17
ENDBRANCH  15  16
ENDBRANCH  14  15
ENDBRANCH  13  14
ENDBRANCH  12  13
ENDBRANCH  11  12
ENDBRANCH  10  11
ENDBRANCH   9  10
ENDBRANCH   8   9
ENDBRANCH   7   8
ENDBRANCH   6   7
ENDBRANCH   5   6
ENDBRANCH   3   5
ENDBRANCH   1   3
TORSDOF 15
ENDMDL
MODEL 4
REMARK VINA RESULT:      -3.8      5.427      8.328
REMARK  15 active torsions:
REMARK  status: ('A' for Active; 'I' for Inactive)
REMARK    1  A    between atoms: O_1  and  C_18 
REMARK    2  A    between atoms: C_3  and  C_4 
REMARK    3  A    between atoms: C_3  and  C_5 
REMARK    4  A    between atoms: C_4  and  C_6 
REMARK    5  A    between atoms: C_5  and  C_7 
REMARK    6  A    between atoms: C_6  and  C_8 
REMARK    7  A    between atoms: C_7  and  C_9 
REMARK    8  A    between atoms: C_8  and  C_10 
REMARK    9  A    between atoms: C_9  and  C_11 
REMARK   10  A    between atoms: C_10  and  C_12 
REMARK   11  A    between atoms: C_11  and  C_13 
REMARK   12  A    between atoms: C_12  and  C_14 
REMARK   13  A    between atoms: C_13  and  C_15 
REMARK   14  A    between atoms: C_14  and  C_16 
REMARK   15  A    between atoms: C_16  and  C_18 
ROOT
HETATM    1  O   UNL     1      29.417   8.954 -15.450  1.00  0.00    -0.776 OA
HETATM    2  H   UNL     1      28.568   8.531 -15.639  1.00  0.00     0.167 HD
ENDROOT
BRANCH   1   3
HETATM    3  C   UNL     1      29.553   9.836 -14.436  1.00  0.00     0.139 C 
HETATM    4  O   UNL     1      28.563  10.375 -13.964  1.00  0.00    -0.650 OA
BRANCH   3   5
HETATM    5  C   UNL     1      30.933  10.135 -13.909  1.00  0.00     0.110 C 
BRANCH   5   6
HETATM    6  C   UNL     1      31.830   8.890 -13.827  1.00  0.00     0.010 C 
BRANCH   6   7
HETATM    7  C   UNL     1      31.335   7.927 -12.742  1.00  0.00     0.001 C 
BRANCH   7   8
HETATM    8  C   UNL     1      31.246   6.493 -13.279  1.00  0.00     0.000 C 
BRANCH   8   9
HETATM    9  C   UNL     1      30.935   5.501 -12.152  1.00  0.00     0.000 C 
BRANCH   9  10
HETATM   10  C   UNL     1      32.188   4.716 -11.749  1.00  0.00     0.000 C 
BRANCH  10  11
HETATM   11  C   UNL     1      32.773   5.249 -10.436  1.00  0.00     0.000 C 
BRANCH  11  12
HETATM   12  C   UNL     1      33.958   6.185 -10.700  1.00  0.00     0.000 C 
BRANCH  12  13
HETATM   13  C   UNL     1      33.841   7.470  -9.873  1.00  0.00     0.000 C 
BRANCH  13  14
HETATM   14  C   UNL     1      32.567   7.460  -9.019  1.00  0.00     0.000 C 
BRANCH  14  15
HETATM   15  C   UNL     1      31.865   8.822  -9.060  1.00  0.00     0.000 C 
BRANCH  15  16
HETATM   16  C   UNL     1      30.363   8.659  -9.318  1.00  0.00     0.000 C 
BRANCH  16  17
HETATM   17  C   UNL     1      29.843   9.760 -10.250  1.00  0.00    -0.000 C 
BRANCH  17  18
HETATM   18  C   UNL     1      28.741  10.581  -9.570  1.00  0.00    -0.005 C 
HETATM   19  C   UNL     1      29.326  11.542  -8.539  1.00  0.00     0.005 C 
ENDBRANCH  17  18
ENDBRANCH  16  17
ENDBRANCH  15  16
ENDBRANCH  14  15
ENDBRANCH  13  14
ENDBRANCH  12  13
ENDBRANCH  11  12
ENDBRANCH  10  11
ENDBRANCH   9  10
ENDBRANCH   8   9
ENDBRANCH   7   8
ENDBRANCH   6   7
ENDBRANCH   5   6
ENDBRANCH   3   5
ENDBRANCH   1   3
TORSDOF 15
ENDMDL
MODEL 5
REMARK VINA RESULT:      -3.8      1.576      3.607
REMARK  15 active torsions:
REMARK  status: ('A' for Active; 'I' for Inactive)
REMARK    1  A    between atoms: O_1  and  C_18 
REMARK    2  A    between atoms: C_3  and  C_4 
REMARK    3  A    between atoms: C_3  and  C_5 
REMARK    4  A    between atoms: C_4  and  C_6 
REMARK    5  A    between atoms: C_5  and  C_7 
REMARK    6  A    between atoms: C_6  and  C_8 
REMARK    7  A    between atoms: C_7  and  C_9 
REMARK    8  A    between atoms: C_8  and  C_10 
REMARK    9  A    between atoms: C_9  and  C_11 
REMARK   10  A    between atoms: C_10  and  C_12 
REMARK   11  A    between atoms: C_11  and  C_13 
REMARK   12  A    between atoms: C_12  and  C_14 
REMARK   13  A    between atoms: C_13  and  C_15 
REMARK   14  A    between atoms: C_14  and  C_16 
REMARK   15  A    between atoms: C_16  and  C_18 
ROOT
HETATM    1  O   UNL     1      31.362   5.480 -10.576  1.00  0.00    -0.776 OA
HETATM    2  H   UNL     1      30.490   5.117 -10.364  1.00  0.00     0.167 HD
ENDROOT
BRANCH   1   3
HETATM    3  C   UNL     1      32.088   5.009 -11.612  1.00  0.00     0.139 C 
HETATM    4  O   UNL     1      33.052   4.288 -11.400  1.00  0.00    -0.650 OA
BRANCH   3   5
HETATM    5  C   UNL     1      31.688   5.387 -13.015  1.00  0.00     0.110 C 
BRANCH   5   6
HETATM    6  C   UNL     1      32.721   6.284 -13.715  1.00  0.00     0.010 C 
BRANCH   6   7
HETATM    7  C   UNL     1      33.279   5.604 -14.970  1.00  0.00     0.001 C 
BRANCH   7   8
HETATM    8  C   UNL     1      34.133   6.578 -15.791  1.00  0.00     0.000 C 
BRANCH   8   9
HETATM    9  C   UNL     1      33.374   7.066 -17.031  1.00  0.00     0.000 C 
BRANCH   9  10
HETATM   10  C   UNL     1      32.311   6.048 -17.461  1.00  0.00     0.000 C 
BRANCH  10  11
HETATM   11  C   UNL     1      30.934   6.711 -17.586  1.00  0.00     0.000 C 
BRANCH  11  12
HETATM   12  C   UNL     1      31.060   8.238 -17.641  1.00  0.00     0.000 C 
BRANCH  12  13
HETATM   13  C   UNL     1      30.519   8.787 -18.966  1.00  0.00     0.000 C 
BRANCH  13  14
HETATM   14  C   UNL     1      31.474   9.830 -19.560  1.00  0.00     0.000 C 
BRANCH  14  15
HETATM   15  C   UNL     1      32.085   9.332 -20.875  1.00  0.00     0.000 C 
BRANCH  15  16
HETATM   16  C   UNL     1      33.617   9.327 -20.802  1.00  0.00     0.000 C 
BRANCH  16  17
HETATM   17  C   UNL     1      34.143   7.947 -20.387  1.00  0.00    -0.000 C 
BRANCH  17  18
HETATM   18  C   UNL     1      33.214   6.833 -20.883  1.00  0.00    -0.005 C 
HETATM   19  C   UNL     1      33.864   5.461 -20.721  1.00  0.00     0.005 C 
ENDBRANCH  17  18
ENDBRANCH  16  17
ENDBRANCH  15  16
ENDBRANCH  14  15
ENDBRANCH  13  14
ENDBRANCH  12  13
ENDBRANCH  11  12
ENDBRANCH  10  11
ENDBRANCH   9  10
ENDBRANCH   8   9
ENDBRANCH   7   8
ENDBRANCH   6   7
ENDBRANCH   5   6
ENDBRANCH   3   5
ENDBRANCH   1   3
TORSDOF 15
ENDMDL
MODEL 6
REMARK VINA RESULT:      -3.7      5.052      8.000
REMARK  15 active torsions:
REMARK  status: ('A' for Active; 'I' for Inactive)
REMARK    1  A    between atoms: O_1  and  C_18 
REMARK    2  A    between atoms: C_3  and  C_4 
REMARK    3  A    between atoms: C_3  and  C_5 
REMARK    4  A    between atoms: C_4  and  C_6 
REMARK    5  A    between atoms: C_5  and  C_7 
REMARK    6  A    between atoms: C_6  and  C_8 
REMARK    7  A    between atoms: C_7  and  C_9 
REMARK    8  A    between atoms: C_8  and  C_10 
REMARK    9  A    between atoms: C_9  and  C_11 
REMARK   10  A    between atoms: C_10  and  C_12 
REMARK   11  A    between atoms: C_11  and  C_13 
REMARK   12  A    between atoms: C_12  and  C_14 
REMARK   13  A    between atoms: C_13  and  C_15 
REMARK   14  A    between atoms: C_14  and  C_16 
REMARK   15  A    between atoms: C_16  and  C_18 
ROOT
HETATM    1  O   UNL     1      27.902  10.815 -14.396  1.00  0.00    -0.776 OA
HETATM    2  H   UNL     1      27.413  10.784 -13.562  1.00  0.00     0.167 HD
ENDROOT
BRANCH   1   3
HETATM    3  C   UNL     1      29.101  10.210 -14.533  1.00  0.00     0.139 C 
HETATM    4  O   UNL     1      29.347   9.572 -15.547  1.00  0.00    -0.650 OA
BRANCH   3   5
HETATM    5  C   UNL     1      30.115  10.339 -13.426  1.00  0.00     0.110 C 
BRANCH   5   6
HETATM    6  C   UNL     1      31.355   9.457 -13.638  1.00  0.00     0.010 C 
BRANCH   6   7
HETATM    7  C   UNL     1      32.559  10.298 -14.076  1.00  0.00     0.001 C 
BRANCH   7   8
HETATM    8  C   UNL     1      33.692   9.407 -14.601  1.00  0.00     0.000 C 
BRANCH   8   9
HETATM    9  C   UNL     1      34.404   8.688 -13.449  1.00  0.00     0.000 C 
BRANCH   9  10
HETATM   10  C   UNL     1      34.911   9.689 -12.405  1.00  0.00     0.000 C 
BRANCH  10  11
HETATM   11  C   UNL     1      34.645   9.183 -10.982  1.00  0.00     0.000 C 
BRANCH  11  12
HETATM   12  C   UNL     1      34.428   7.665 -10.969  1.00  0.00     0.000 C 
BRANCH  12  13
HETATM   13  C   UNL     1      33.050   7.311 -10.398  1.00  0.00     0.000 C 
BRANCH  13  14
HETATM   14  C   UNL     1      32.922   5.799 -10.170  1.00  0.00     0.000 C 
BRANCH  14  15
HETATM   15  C   UNL     1      31.449   5.376 -10.107  1.00  0.00     0.000 C 
BRANCH  15  16
HETATM   16  C   UNL     1      30.624   6.094 -11.180  1.00  0.00     0.000 C 
BRANCH  16  17
HETATM   17  C   UNL     1      30.581   5.279 -12.478  1.00  0.00    -0.000 C 
BRANCH  17  18
HETATM   18  C   UNL     1      31.291   6.021 -13.617  1.00  0.00    -0.005 C 
HETATM   19  C   UNL     1      32.668   5.422 -13.889  1.00  0.00     0.005 C 
ENDBRANCH  17  18
ENDBRANCH  16  17
ENDBRANCH  15  16
ENDBRANCH  14  15
ENDBRANCH  13  14
ENDBRANCH  12  13
ENDBRANCH  11  12
ENDBRANCH  10  11
ENDBRANCH   9  10
ENDBRANCH   8   9
ENDBRANCH   7   8
ENDBRANCH   6   7
ENDBRANCH   5   6
ENDBRANCH   3   5
ENDBRANCH   1   3
TORSDOF 15
ENDMDL
MODEL 7
REMARK VINA RESULT:      -3.7      5.354     10.635
REMARK  15 active torsions:
REMARK  status: ('A' for Active; 'I' for Inactive)
REMARK    1  A    between atoms: O_1  and  C_18 
REMARK    2  A    between atoms: C_3  and  C_4 
REMARK    3  A    between atoms: C_3  and  C_5 
REMARK    4  A    between atoms: C_4  and  C_6 
REMARK    5  A    between atoms: C_5  and  C_7 
REMARK    6  A    between atoms: C_6  and  C_8 
REMARK    7  A    between atoms: C_7  and  C_9 
REMARK    8  A    between atoms: C_8  and  C_10 
REMARK    9  A    between atoms: C_9  and  C_11 
REMARK   10  A    between atoms: C_10  and  C_12 
REMARK   11  A    between atoms: C_11  and  C_13 
REMARK   12  A    between atoms: C_12  and  C_14 
REMARK   13  A    between atoms: C_13  and  C_15 
REMARK   14  A    between atoms: C_14  and  C_16 
REMARK   15  A    between atoms: C_16  and  C_18 
ROOT
HETATM    1  O   UNL     1      32.050   6.793 -17.567  1.00  0.00    -0.776 OA
HETATM    2  H   UNL     1      31.974   7.675 -17.956  1.00  0.00     0.167 HD
ENDROOT
BRANCH   1   3
HETATM    3  C   UNL     1      31.217   6.380 -16.588  1.00  0.00     0.139 C 
HETATM    4  O   UNL     1      30.109   6.887 -16.481  1.00  0.00    -0.650 OA
BRANCH   3   5
HETATM    5  C   UNL     1      31.676   5.297 -15.647  1.00  0.00     0.110 C 
BRANCH   5   6
HETATM    6  C   UNL     1      30.891   5.274 -14.326  1.00  0.00     0.010 C 
BRANCH   6   7
HETATM    7  C   UNL     1      31.709   5.898 -13.190  1.00  0.00     0.001 C 
BRANCH   7   8
HETATM    8  C   UNL     1      30.865   6.895 -12.386  1.00  0.00     0.000 C 
BRANCH   8   9
HETATM    9  C   UNL     1      31.154   6.776 -10.885  1.00  0.00     0.000 C 
BRANCH   9  10
HETATM   10  C   UNL     1      32.179   5.671 -10.608  1.00  0.00     0.000 C 
BRANCH  10  11
HETATM   11  C   UNL     1      32.248   5.348  -9.110  1.00  0.00     0.000 C 
BRANCH  11  12
HETATM   12  C   UNL     1      30.859   5.422  -8.466  1.00  0.00     0.000 C 
BRANCH  12  13
HETATM   13  C   UNL     1      30.910   4.993  -6.995  1.00  0.00     0.000 C 
BRANCH  13  14
HETATM   14  C   UNL     1      30.467   6.136  -6.073  1.00  0.00     0.000 C 
BRANCH  14  15
HETATM   15  C   UNL     1      31.678   6.868  -5.482  1.00  0.00     0.000 C 
BRANCH  15  16
HETATM   16  C   UNL     1      32.772   5.878  -5.070  1.00  0.00     0.000 C 
BRANCH  16  17
HETATM   17  C   UNL     1      34.085   6.168  -5.808  1.00  0.00    -0.000 C 
BRANCH  17  18
HETATM   18  C   UNL     1      34.019   7.515  -6.537  1.00  0.00    -0.005 C 
HETATM   19  C   UNL     1      35.122   8.455  -6.058  1.00  0.00     0.005 C 
ENDBRANCH  17  18
ENDBRANCH  16  17
ENDBRANCH  15  16
ENDBRANCH  14  15
ENDBRANCH  13  14
ENDBRANCH  12  13
ENDBRANCH  11  12
ENDBRANCH  10  11
ENDBRANCH   9  10
ENDBRANCH   8   9
ENDBRANCH   7   8
ENDBRANCH   6   7
ENDBRANCH   5   6
ENDBRANCH   3   5
ENDBRANCH   1   3
TORSDOF 15
ENDMDL
MODEL 8
REMARK VINA RESULT:      -3.7      5.302      8.224
REMARK  15 active torsions:
REMARK  status: ('A' for Active; 'I' for Inactive)
REMARK    1  A    between atoms: O_1  and  C_18 
REMARK    2  A    between atoms: C_3  and  C_4 
REMARK    3  A    between atoms: C_3  and  C_5 
REMARK    4  A    between atoms: C_4  and  C_6 
REMARK    5  A    between atoms: C_5  and  C_7 
REMARK    6  A    between atoms: C_6  and  C_8 
REMARK    7  A    between atoms: C_7  and  C_9 
REMARK    8  A    between atoms: C_8  and  C_10 
REMARK    9  A    between atoms: C_9  and  C_11 
REMARK   10  A    between atoms: C_10  and  C_12 
REMARK   11  A    between atoms: C_11  and  C_13 
REMARK   12  A    between atoms: C_12  and  C_14 
REMARK   13  A    between atoms: C_13  and  C_15 
REMARK   14  A    between atoms: C_14  and  C_16 
REMARK   15  A    between atoms: C_16  and  C_18 
ROOT
HETATM    1  O   UNL     1      29.385  12.156  -7.812  1.00  0.00    -0.776 OA
HETATM    2  H   UNL     1      29.156  13.087  -7.677  1.00  0.00     0.167 HD
ENDROOT
BRANCH   1   3
HETATM    3  C   UNL     1      29.005  11.491  -8.924  1.00  0.00     0.139 C 
HETATM    4  O   UNL     1      28.243  10.540  -8.830  1.00  0.00    -0.650 OA
BRANCH   3   5
HETATM    5  C   UNL     1      29.532  11.943 -10.261  1.00  0.00     0.110 C 
BRANCH   5   6
HETATM    6  C   UNL     1      29.784  10.780 -11.233  1.00  0.00     0.010 C 
BRANCH   6   7
HETATM    7  C   UNL     1      31.251  10.339 -11.193  1.00  0.00     0.001 C 
BRANCH   7   8
HETATM    8  C   UNL     1      31.451   9.182 -10.206  1.00  0.00     0.000 C 
BRANCH   8   9
HETATM    9  C   UNL     1      30.460   8.045 -10.482  1.00  0.00     0.000 C 
BRANCH   9  10
HETATM   10  C   UNL     1      31.024   6.699 -10.012  1.00  0.00     0.000 C 
BRANCH  10  11
HETATM   11  C   UNL     1      30.689   5.584 -11.010  1.00  0.00     0.000 C 
BRANCH  11  12
HETATM   12  C   UNL     1      31.886   5.279 -11.918  1.00  0.00     0.000 C 
BRANCH  12  13
HETATM   13  C   UNL     1      31.511   5.437 -13.396  1.00  0.00     0.000 C 
BRANCH  13  14
HETATM   14  C   UNL     1      31.077   6.875 -13.703  1.00  0.00     0.000 C 
BRANCH  14  15
HETATM   15  C   UNL     1      32.023   7.531 -14.716  1.00  0.00     0.000 C 
BRANCH  15  16
HETATM   16  C   UNL     1      32.856   8.635 -14.055  1.00  0.00     0.000 C 
BRANCH  16  17
HETATM   17  C   UNL     1      34.135   8.061 -13.434  1.00  0.00    -0.000 C 
BRANCH  17  18
HETATM   18  C   UNL     1      34.392   8.665 -12.048  1.00  0.00    -0.005 C 
HETATM   19  C   UNL     1      34.670   7.576 -11.016  1.00  0.00     0.005 C 
ENDBRANCH  17  18
ENDBRANCH  16  17
ENDBRANCH  15  16
ENDBRANCH  14  15
ENDBRANCH  13  14
ENDBRANCH  12  13
ENDBRANCH  11  12
ENDBRANCH  10  11
ENDBRANCH   9  10
ENDBRANCH   8   9
ENDBRANCH   7   8
ENDBRANCH   6   7
ENDBRANCH   5   6
ENDBRANCH   3   5
ENDBRANCH   1   3
TORSDOF 15
ENDMDL
MODEL 9
REMARK VINA RESULT:      -3.7      4.600      9.438
REMARK  15 active torsions:
REMARK  status: ('A' for Active; 'I' for Inactive)
REMARK    1  A    between atoms: O_1  and  C_18 
REMARK    2  A    between atoms: C_3  and  C_4 
REMARK    3  A    between atoms: C_3  and  C_5 
REMARK    4  A    between atoms: C_4  and  C_6 
REMARK    5  A    between atoms: C_5  and  C_7 
REMARK    6  A    between atoms: C_6  and  C_8 
REMARK    7  A    between atoms: C_7  and  C_9 
REMARK    8  A    between atoms: C_8  and  C_10 
REMARK    9  A    between atoms: C_9  and  C_11 
REMARK   10  A    between atoms: C_10  and  C_12 
REMARK   11  A    between atoms: C_11  and  C_13 
REMARK   12  A    between atoms: C_12  and  C_14 
REMARK   13  A    between atoms: C_13  and  C_15 
REMARK   14  A    between atoms: C_14  and  C_16 
REMARK   15  A    between atoms: C_16  and  C_18 
ROOT
HETATM    1  O   UNL     1      33.123   6.672 -17.975  1.00  0.00    -0.776 OA
HETATM    2  H   UNL     1      32.867   7.442 -17.449  1.00  0.00     0.167 HD
ENDROOT
BRANCH   1   3
HETATM    3  C   UNL     1      32.409   5.526 -17.939  1.00  0.00     0.139 C 
HETATM    4  O   UNL     1      32.096   4.973 -18.984  1.00  0.00    -0.650 OA
BRANCH   3   5
HETATM    5  C   UNL     1      32.014   4.953 -16.603  1.00  0.00     0.110 C 
BRANCH   5   6
HETATM    6  C   UNL     1      33.107   5.109 -15.534  1.00  0.00     0.010 C 
BRANCH   6   7
HETATM    7  C   UNL     1      32.491   5.321 -14.146  1.00  0.00     0.001 C 
BRANCH   7   8
HETATM    8  C   UNL     1      31.860   6.714 -14.032  1.00  0.00     0.000 C 
BRANCH   8   9
HETATM    9  C   UNL     1      32.935   7.808 -14.037  1.00  0.00     0.000 C 
BRANCH   9  10
HETATM   10  C   UNL     1      33.815   7.721 -12.785  1.00  0.00     0.000 C 
BRANCH  10  11
HETATM   11  C   UNL     1      33.041   8.163 -11.537  1.00  0.00     0.000 C 
BRANCH  11  12
HETATM   12  C   UNL     1      33.776   7.750 -10.257  1.00  0.00     0.000 C 
BRANCH  12  13
HETATM   13  C   UNL     1      32.886   7.941  -9.025  1.00  0.00     0.000 C 
BRANCH  13  14
HETATM   14  C   UNL     1      31.579   7.149  -9.162  1.00  0.00     0.000 C 
BRANCH  14  15
HETATM   15  C   UNL     1      31.799   5.665  -8.847  1.00  0.00     0.000 C 
BRANCH  15  16
HETATM   16  C   UNL     1      30.811   5.176  -7.782  1.00  0.00     0.000 C 
BRANCH  16  17
HETATM   17  C   UNL     1      31.464   5.153  -6.394  1.00  0.00    -0.000 C 
BRANCH  17  18
HETATM   18  C   UNL     1      32.966   4.863  -6.498  1.00  0.00    -0.005 C 
HETATM   19  C   UNL     1      33.787   5.971  -5.845  1.00  0.00     0.005 C 
ENDBRANCH  17  18
ENDBRANCH  16  17
ENDBRANCH  15  16
ENDBRANCH  14  15
ENDBRANCH  13  14
ENDBRANCH  12  13
ENDBRANCH  11  12
ENDBRANCH  10  11
ENDBRANCH   9  10
ENDBRANCH   8   9
ENDBRANCH   7   8
ENDBRANCH   6   7
ENDBRANCH   5   6
ENDBRANCH   3   5
ENDBRANCH   1   3
TORSDOF 15
ENDMDL
MODEL 10
REMARK VINA RESULT:      -3.5      2.710      5.320
REMARK  15 active torsions:
REMARK  status: ('A' for Active; 'I' for Inactive)
REMARK    1  A    between atoms: O_1  and  C_18 
REMARK    2  A    between atoms: C_3  and  C_4 
REMARK    3  A    between atoms: C_3  and  C_5 
REMARK    4  A    between atoms: C_4  and  C_6 
REMARK    5  A    between atoms: C_5  and  C_7 
REMARK    6  A    between atoms: C_6  and  C_8 
REMARK    7  A    between atoms: C_7  and  C_9 
REMARK    8  A    between atoms: C_8  and  C_10 
REMARK    9  A    between atoms: C_9  and  C_11 
REMARK   10  A    between atoms: C_10  and  C_12 
REMARK   11  A    between atoms: C_11  and  C_13 
REMARK   12  A    between atoms: C_12  and  C_14 
REMARK   13  A    between atoms: C_13  and  C_15 
REMARK   14  A    between atoms: C_14  and  C_16 
REMARK   15  A    between atoms: C_16  and  C_18 
ROOT
HETATM    1  O   UNL     1      29.233  10.308 -16.974  1.00  0.00    -0.776 OA
HETATM    2  H   UNL     1      28.742   9.487 -16.829  1.00  0.00     0.167 HD
ENDROOT
BRANCH   1   3
HETATM    3  C   UNL     1      30.444  10.512 -16.414  1.00  0.00     0.139 C 
HETATM    4  O   UNL     1      30.521  10.877 -15.250  1.00  0.00    -0.650 OA
BRANCH   3   5
HETATM    5  C   UNL     1      31.680  10.283 -17.244  1.00  0.00     0.110 C 
BRANCH   5   6
HETATM    6  C   UNL     1      32.983  10.474 -16.452  1.00  0.00     0.010 C 
BRANCH   6   7
HETATM    7  C   UNL     1      34.156   9.775 -17.147  1.00  0.00     0.001 C 
BRANCH   7   8
HETATM    8  C   UNL     1      33.799   8.327 -17.507  1.00  0.00     0.000 C 
BRANCH   8   9
HETATM    9  C   UNL     1      34.103   8.036 -18.982  1.00  0.00     0.000 C 
BRANCH   9  10
HETATM   10  C   UNL     1      32.890   7.413 -19.680  1.00  0.00     0.000 C 
BRANCH  10  11
HETATM   11  C   UNL     1      32.985   5.882 -19.688  1.00  0.00     0.000 C 
BRANCH  11  12
HETATM   12  C   UNL     1      31.627   5.244 -19.370  1.00  0.00     0.000 C 
BRANCH  12  13
HETATM   13  C   UNL     1      31.095   5.726 -18.016  1.00  0.00     0.000 C 
BRANCH  13  14
HETATM   14  C   UNL     1      31.675   4.891 -16.868  1.00  0.00     0.000 C 
BRANCH  14  15
HETATM   15  C   UNL     1      31.215   5.430 -15.508  1.00  0.00     0.000 C 
BRANCH  15  16
HETATM   16  C   UNL     1      30.995   6.946 -15.563  1.00  0.00     0.000 C 
BRANCH  16  17
HETATM   17  C   UNL     1      31.611   7.636 -14.339  1.00  0.00    -0.000 C 
BRANCH  17  18
HETATM   18  C   UNL     1      33.014   7.090 -14.048  1.00  0.00    -0.005 C 
HETATM   19  C   UNL     1      33.953   8.203 -13.591  1.00  0.00     0.005 C 
ENDBRANCH  17  18
ENDBRANCH  16  17
ENDBRANCH  15  16
ENDBRANCH  14  15
ENDBRANCH  13  14
ENDBRANCH  12  13
ENDBRANCH  11  12
ENDBRANCH  10  11
ENDBRANCH   9  10
ENDBRANCH   8   9
ENDBRANCH   7   8
ENDBRANCH   6   7
ENDBRANCH   5   6
ENDBRANCH   3   5
ENDBRANCH   1   3
TORSDOF 15
ENDMDL
MODEL 11
REMARK VINA RESULT:      -3.5      2.308      3.712
REMARK  15 active torsions:
REMARK  status: ('A' for Active; 'I' for Inactive)
REMARK    1  A    between atoms: O_1  and  C_18 
REMARK    2  A    between atoms: C_3  and  C_4 
REMARK    3  A    between atoms: C_3  and  C_5 
REMARK    4  A    between atoms: C_4  and  C_6 
REMARK    5  A    between atoms: C_5  and  C_7 
REMARK    6  A    between atoms: C_6  and  C_8 
REMARK    7  A    between atoms: C_7  and  C_9 
REMARK    8  A    between atoms: C_8  and  C_10 
REMARK    9  A    between atoms: C_9  and  C_11 
REMARK   10  A    between atoms: C_10  and  C_12 
REMARK   11  A    between atoms: C_11  and  C_13 
REMARK   12  A    between atoms: C_12  and  C_14 
REMARK   13  A    between atoms: C_13  and  C_15 
REMARK   14  A    between atoms: C_14  and  C_16 
REMARK   15  A    between atoms: C_16  and  C_18 
ROOT
HETATM    1  O   UNL     1      31.209   5.471  -9.497  1.00  0.00    -0.776 OA
HETATM    2  H   UNL     1      30.684   4.842  -8.982  1.00  0.00     0.167 HD
ENDROOT
BRANCH   1   3
HETATM    3  C   UNL     1      31.433   5.288 -10.815  1.00  0.00     0.139 C 
HETATM    4  O   UNL     1      32.353   4.569 -11.180  1.00  0.00    -0.650 OA
BRANCH   3   5
HETATM    5  C   UNL     1      30.538   5.978 -11.812  1.00  0.00     0.110 C 
BRANCH   5   6
HETATM    6  C   UNL     1      31.209   7.180 -12.494  1.00  0.00     0.010 C 
BRANCH   6   7
HETATM    7  C   UNL     1      31.085   7.086 -14.018  1.00  0.00     0.001 C 
BRANCH   7   8
HETATM    8  C   UNL     1      31.133   5.626 -14.486  1.00  0.00     0.000 C 
BRANCH   8   9
HETATM    9  C   UNL     1      32.539   5.247 -14.965  1.00  0.00     0.000 C 
BRANCH   9  10
HETATM   10  C   UNL     1      32.507   4.726 -16.406  1.00  0.00     0.000 C 
BRANCH  10  11
HETATM   11  C   UNL     1      32.883   5.832 -17.399  1.00  0.00     0.000 C 
BRANCH  11  12
HETATM   12  C   UNL     1      32.669   5.371 -18.845  1.00  0.00     0.000 C 
BRANCH  12  13
HETATM   13  C   UNL     1      33.439   6.261 -19.827  1.00  0.00     0.000 C 
BRANCH  13  14
HETATM   14  C   UNL     1      33.245   7.745 -19.492  1.00  0.00     0.000 C 
BRANCH  14  15
HETATM   15  C   UNL     1      33.361   8.613 -20.751  1.00  0.00     0.000 C 
BRANCH  15  16
HETATM   16  C   UNL     1      34.163   7.895 -21.842  1.00  0.00     0.000 C 
BRANCH  16  17
HETATM   17  C   UNL     1      33.381   7.851 -23.161  1.00  0.00    -0.000 C 
BRANCH  17  18
HETATM   18  C   UNL     1      31.911   7.494 -22.916  1.00  0.00    -0.005 C 
HETATM   19  C   UNL     1      31.443   6.401 -23.874  1.00  0.00     0.005 C 
ENDBRANCH  17  18
ENDBRANCH  16  17
ENDBRANCH  15  16
ENDBRANCH  14  15
ENDBRANCH  13  14
ENDBRANCH  12  13
ENDBRANCH  11  12
ENDBRANCH  10  11
ENDBRANCH   9  10
ENDBRANCH   8   9
ENDBRANCH   7   8
ENDBRANCH   6   7
ENDBRANCH   5   6
ENDBRANCH   3   5
ENDBRANCH   1   3
TORSDOF 15
ENDMDL
MODEL 12
REMARK VINA RESULT:      -3.5      3.061      4.413
REMARK  15 active torsions:
REMARK  status: ('A' for Active; 'I' for Inactive)
REMARK    1  A    between atoms: O_1  and  C_18 
REMARK    2  A    between atoms: C_3  and  C_4 
REMARK    3  A    between atoms: C_3  and  C_5 
REMARK    4  A    between atoms: C_4  and  C_6 
REMARK    5  A    between atoms: C_5  and  C_7 
REMARK    6  A    between atoms: C_6  and  C_8 
REMARK    7  A    between atoms: C_7  and  C_9 
REMARK    8  A    between atoms: C_8  and  C_10 
REMARK    9  A    between atoms: C_9  and  C_11 
REMARK   10  A    between atoms: C_10  and  C_12 
REMARK   11  A    between atoms: C_11  and  C_13 
REMARK   12  A    between atoms: C_12  and  C_14 
REMARK   13  A    between atoms: C_13  and  C_15 
REMARK   14  A    between atoms: C_14  and  C_16 
REMARK   15  A    between atoms: C_16  and  C_18 
ROOT
HETATM    1  O   UNL     1      31.215   5.351  -9.353  1.00  0.00    -0.776 OA
HETATM    2  H   UNL     1      30.735   4.695  -8.828  1.00  0.00     0.167 HD
ENDROOT
BRANCH   1   3
HETATM    3  C   UNL     1      31.450   5.166 -10.669  1.00  0.00     0.139 C 
HETATM    4  O   UNL     1      32.415   4.503 -11.025  1.00  0.00    -0.650 OA
BRANCH   3   5
HETATM    5  C   UNL     1      30.512   5.782 -11.673  1.00  0.00     0.110 C 
BRANCH   5   6
HETATM    6  C   UNL     1      31.076   7.055 -12.323  1.00  0.00     0.010 C 
BRANCH   6   7
HETATM    7  C   UNL     1      31.008   6.968 -13.852  1.00  0.00     0.001 C 
BRANCH   7   8
HETATM    8  C   UNL     1      31.187   5.522 -14.329  1.00  0.00     0.000 C 
BRANCH   8   9
HETATM    9  C   UNL     1      32.573   5.314 -14.951  1.00  0.00     0.000 C 
BRANCH   9  10
HETATM   10  C   UNL     1      32.458   4.774 -16.381  1.00  0.00     0.000 C 
BRANCH  10  11
HETATM   11  C   UNL     1      33.044   5.767 -17.393  1.00  0.00     0.000 C 
BRANCH  11  12
HETATM   12  C   UNL     1      32.371   7.139 -17.272  1.00  0.00     0.000 C 
BRANCH  12  13
HETATM   13  C   UNL     1      33.414   8.257 -17.171  1.00  0.00     0.000 C 
BRANCH  13  14
HETATM   14  C   UNL     1      34.593   7.831 -16.287  1.00  0.00     0.000 C 
BRANCH  14  15
HETATM   15  C   UNL     1      35.050   8.984 -15.385  1.00  0.00     0.000 C 
BRANCH  15  16
HETATM   16  C   UNL     1      34.516  10.327 -15.897  1.00  0.00     0.000 C 
BRANCH  16  17
HETATM   17  C   UNL     1      33.816  11.104 -14.775  1.00  0.00    -0.000 C 
BRANCH  17  18
HETATM   18  C   UNL     1      32.934  10.177 -13.931  1.00  0.00    -0.005 C 
HETATM   19  C   UNL     1      31.516  10.729 -13.807  1.00  0.00     0.005 C 
ENDBRANCH  17  18
ENDBRANCH  16  17
ENDBRANCH  15  16
ENDBRANCH  14  15
ENDBRANCH  13  14
ENDBRANCH  12  13
ENDBRANCH  11  12
ENDBRANCH  10  11
ENDBRANCH   9  10
ENDBRANCH   8   9
ENDBRANCH   7   8
ENDBRANCH   6   7
ENDBRANCH   5   6
ENDBRANCH   3   5
ENDBRANCH   1   3
TORSDOF 15
ENDMDL
MODEL 13
REMARK VINA RESULT:      -3.5      3.140      6.771
REMARK  15 active torsions:
REMARK  status: ('A' for Active; 'I' for Inactive)
REMARK    1  A    between atoms: O_1  and  C_18 
REMARK    2  A    between atoms: C_3  and  C_4 
REMARK    3  A    between atoms: C_3  and  C_5 
REMARK    4  A    between atoms: C_4  and  C_6 
REMARK    5  A    between atoms: C_5  and  C_7 
REMARK    6  A    between atoms: C_6  and  C_8 
REMARK    7  A    between atoms: C_7  and  C_9 
REMARK    8  A    between atoms: C_8  and  C_10 
REMARK    9  A    between atoms: C_9  and  C_11 
REMARK   10  A    between atoms: C_10  and  C_12 
REMARK   11  A    between atoms: C_11  and  C_13 
REMARK   12  A    between atoms: C_12  and  C_14 
REMARK   13  A    between atoms: C_13  and  C_15 
REMARK   14  A    between atoms: C_14  and  C_16 
REMARK   15  A    between atoms: C_16  and  C_18 
ROOT
HETATM    1  O   UNL     1      27.875  10.409 -14.397  1.00  0.00    -0.776 OA
HETATM    2  H   UNL     1      27.900   9.776 -13.666  1.00  0.00     0.167 HD
ENDROOT
BRANCH   1   3
HETATM    3  C   UNL     1      28.897  11.261 -14.626  1.00  0.00     0.139 C 
HETATM    4  O   UNL     1      28.946  12.326 -14.028  1.00  0.00    -0.650 OA
BRANCH   3   5
HETATM    5  C   UNL     1      29.961  10.873 -15.620  1.00  0.00     0.110 C 
BRANCH   5   6
HETATM    6  C   UNL     1      30.912   9.787 -15.093  1.00  0.00     0.010 C 
BRANCH   6   7
HETATM    7  C   UNL     1      31.735   9.177 -16.233  1.00  0.00     0.001 C 
BRANCH   7   8
HETATM    8  C   UNL     1      30.994   9.294 -17.570  1.00  0.00     0.000 C 
BRANCH   8   9
HETATM    9  C   UNL     1      30.783   7.914 -18.205  1.00  0.00     0.000 C 
BRANCH   9  10
HETATM   10  C   UNL     1      32.090   7.112 -18.224  1.00  0.00     0.000 C 
BRANCH  10  11
HETATM   11  C   UNL     1      31.915   5.759 -17.524  1.00  0.00     0.000 C 
BRANCH  11  12
HETATM   12  C   UNL     1      30.524   5.643 -16.888  1.00  0.00     0.000 C 
BRANCH  12  13
HETATM   13  C   UNL     1      30.624   5.219 -15.419  1.00  0.00     0.000 C 
BRANCH  13  14
HETATM   14  C   UNL     1      31.893   5.784 -14.768  1.00  0.00     0.000 C 
BRANCH  14  15
HETATM   15  C   UNL     1      32.044   5.280 -13.327  1.00  0.00     0.000 C 
BRANCH  15  16
HETATM   16  C   UNL     1      31.390   6.248 -12.335  1.00  0.00     0.000 C 
BRANCH  16  17
HETATM   17  C   UNL     1      32.185   6.313 -11.025  1.00  0.00    -0.000 C 
BRANCH  17  18
HETATM   18  C   UNL     1      31.246   6.366  -9.814  1.00  0.00    -0.005 C 
HETATM   19  C   UNL     1      31.697   5.397  -8.725  1.00  0.00     0.005 C 
ENDBRANCH  17  18
ENDBRANCH  16  17
ENDBRANCH  15  16
ENDBRANCH  14  15
ENDBRANCH  13  14
ENDBRANCH  12  13
ENDBRANCH  11  12
ENDBRANCH  10  11
ENDBRANCH   9  10
ENDBRANCH   8   9
ENDBRANCH   7   8
ENDBRANCH   6   7
ENDBRANCH   5   6
ENDBRANCH   3   5
ENDBRANCH   1   3
TORSDOF 15
ENDMDL
MODEL 14
REMARK VINA RESULT:      -3.5      5.803     10.862
REMARK  15 active torsions:
REMARK  status: ('A' for Active; 'I' for Inactive)
REMARK    1  A    between atoms: O_1  and  C_18 
REMARK    2  A    between atoms: C_3  and  C_4 
REMARK    3  A    between atoms: C_3  and  C_5 
REMARK    4  A    between atoms: C_4  and  C_6 
REMARK    5  A    between atoms: C_5  and  C_7 
REMARK    6  A    between atoms: C_6  and  C_8 
REMARK    7  A    between atoms: C_7  and  C_9 
REMARK    8  A    between atoms: C_8  and  C_10 
REMARK    9  A    between atoms: C_9  and  C_11 
REMARK   10  A    between atoms: C_10  and  C_12 
REMARK   11  A    between atoms: C_11  and  C_13 
REMARK   12  A    between atoms: C_12  and  C_14 
REMARK   13  A    between atoms: C_13  and  C_15 
REMARK   14  A    between atoms: C_14  and  C_16 
REMARK   15  A    between atoms: C_16  and  C_18 
ROOT
HETATM    1  O   UNL     1      33.114   5.236 -17.508  1.00  0.00    -0.776 OA
HETATM    2  H   UNL     1      33.443   6.018 -17.973  1.00  0.00     0.167 HD
ENDROOT
BRANCH   1   3
HETATM    3  C   UNL     1      32.166   5.332 -16.552  1.00  0.00     0.139 C 
HETATM    4  O   UNL     1      30.984   5.260 -16.859  1.00  0.00    -0.650 OA
BRANCH   3   5
HETATM    5  C   UNL     1      32.590   5.526 -15.119  1.00  0.00     0.110 C 
BRANCH   5   6
HETATM    6  C   UNL     1      31.488   5.167 -14.110  1.00  0.00     0.010 C 
BRANCH   6   7
HETATM    7  C   UNL     1      31.274   6.303 -13.103  1.00  0.00     0.001 C 
BRANCH   7   8
HETATM    8  C   UNL     1      30.267   5.896 -12.021  1.00  0.00     0.000 C 
BRANCH   8   9
HETATM    9  C   UNL     1      30.984   5.460 -10.737  1.00  0.00     0.000 C 
BRANCH   9  10
HETATM   10  C   UNL     1      31.820   6.608 -10.158  1.00  0.00     0.000 C 
BRANCH  10  11
HETATM   11  C   UNL     1      30.978   7.486  -9.225  1.00  0.00     0.000 C 
BRANCH  11  12
HETATM   12  C   UNL     1      31.778   7.897  -7.984  1.00  0.00     0.000 C 
BRANCH  12  13
HETATM   13  C   UNL     1      33.108   7.139  -7.911  1.00  0.00     0.000 C 
BRANCH  13  14
HETATM   14  C   UNL     1      34.134   7.909  -7.069  1.00  0.00     0.000 C 
BRANCH  14  15
HETATM   15  C   UNL     1      34.401   7.196  -5.739  1.00  0.00     0.000 C 
BRANCH  15  16
HETATM   16  C   UNL     1      33.823   5.776  -5.750  1.00  0.00     0.000 C 
BRANCH  16  17
HETATM   17  C   UNL     1      32.890   5.553  -4.554  1.00  0.00    -0.000 C 
BRANCH  17  18
HETATM   18  C   UNL     1      32.641   6.863  -3.798  1.00  0.00    -0.005 C 
HETATM   19  C   UNL     1      31.151   7.082  -3.552  1.00  0.00     0.005 C 
ENDBRANCH  17  18
ENDBRANCH  16  17
ENDBRANCH  15  16
ENDBRANCH  14  15
ENDBRANCH  13  14
ENDBRANCH  12  13
ENDBRANCH  11  12
ENDBRANCH  10  11
ENDBRANCH   9  10
ENDBRANCH   8   9
ENDBRANCH   7   8
ENDBRANCH   6   7
ENDBRANCH   5   6
ENDBRANCH   3   5
ENDBRANCH   1   3
TORSDOF 15
ENDMDL
MODEL 15
REMARK VINA RESULT:      -3.5      3.288      5.609
REMARK  15 active torsions:
REMARK  status: ('A' for Active; 'I' for Inactive)
REMARK    1  A    between atoms: O_1  and  C_18 
REMARK    2  A    between atoms: C_3  and  C_4 
REMARK    3  A    between atoms: C_3  and  C_5 
REMARK    4  A    between atoms: C_4  and  C_6 
REMARK    5  A    between atoms: C_5  and  C_7 
REMARK    6  A    between atoms: C_6  and  C_8 
REMARK    7  A    between atoms: C_7  and  C_9 
REMARK    8  A    between atoms: C_8  and  C_10 
REMARK    9  A    between atoms: C_9  and  C_11 
REMARK   10  A    between atoms: C_10  and  C_12 
REMARK   11  A    between atoms: C_11  and  C_13 
REMARK   12  A    between atoms: C_12  and  C_14 
REMARK   13  A    between atoms: C_13  and  C_15 
REMARK   14  A    between atoms: C_14  and  C_16 
REMARK   15  A    between atoms: C_16  and  C_18 
ROOT
HETATM    1  O   UNL     1      29.741  11.116  -8.866  1.00  0.00    -0.776 OA
HETATM    2  H   UNL     1      30.149  11.031  -7.993  1.00  0.00     0.167 HD
ENDROOT
BRANCH   1   3
HETATM    3  C   UNL     1      29.479  10.034  -9.629  1.00  0.00     0.139 C 
HETATM    4  O   UNL     1      28.423   9.965 -10.243  1.00  0.00    -0.650 OA
BRANCH   3   5
HETATM    5  C   UNL     1      30.502   8.931  -9.708  1.00  0.00     0.110 C 
BRANCH   5   6
HETATM    6  C   UNL     1      30.786   8.473 -11.147  1.00  0.00     0.010 C 
BRANCH   6   7
HETATM    7  C   UNL     1      30.705   6.947 -11.264  1.00  0.00     0.001 C 
BRANCH   7   8
HETATM    8  C   UNL     1      31.594   6.435 -12.405  1.00  0.00     0.000 C 
BRANCH   8   9
HETATM    9  C   UNL     1      30.954   5.230 -13.103  1.00  0.00     0.000 C 
BRANCH   9  10
HETATM   10  C   UNL     1      30.854   5.459 -14.615  1.00  0.00     0.000 C 
BRANCH  10  11
HETATM   11  C   UNL     1      31.892   6.486 -15.085  1.00  0.00     0.000 C 
BRANCH  11  12
HETATM   12  C   UNL     1      33.127   5.792 -15.672  1.00  0.00     0.000 C 
BRANCH  12  13
HETATM   13  C   UNL     1      33.200   5.988 -17.190  1.00  0.00     0.000 C 
BRANCH  13  14
HETATM   14  C   UNL     1      32.097   5.193 -17.901  1.00  0.00     0.000 C 
BRANCH  14  15
HETATM   15  C   UNL     1      31.386   6.056 -18.950  1.00  0.00     0.000 C 
BRANCH  15  16
HETATM   16  C   UNL     1      31.282   5.318 -20.290  1.00  0.00     0.000 C 
BRANCH  16  17
HETATM   17  C   UNL     1      32.673   4.970 -20.835  1.00  0.00    -0.000 C 
BRANCH  17  18
HETATM   18  C   UNL     1      32.966   5.741 -22.127  1.00  0.00    -0.005 C 
HETATM   19  C   UNL     1      32.061   5.274 -23.264  1.00  0.00     0.005 C 
ENDBRANCH  17  18
ENDBRANCH  16  17
ENDBRANCH  15  16
ENDBRANCH  14  15
ENDBRANCH  13  14
ENDBRANCH  12  13
ENDBRANCH  11  12
ENDBRANCH  10  11
ENDBRANCH   9  10
ENDBRANCH   8   9
ENDBRANCH   7   8
ENDBRANCH   6   7
ENDBRANCH   5   6
ENDBRANCH   3   5
ENDBRANCH   1   3
TORSDOF 15
ENDMDL
MODEL 16
REMARK VINA RESULT:      -3.5      3.421      5.812
REMARK  15 active torsions:
REMARK  status: ('A' for Active; 'I' for Inactive)
REMARK    1  A    between atoms: O_1  and  C_18 
REMARK    2  A    between atoms: C_3  and  C_4 
REMARK    3  A    between atoms: C_3  and  C_5 
REMARK    4  A    between atoms: C_4  and  C_6 
REMARK    5  A    between atoms: C_5  and  C_7 
REMARK    6  A    between atoms: C_6  and  C_8 
REMARK    7  A    between atoms: C_7  and  C_9 
REMARK    8  A    between atoms: C_8  and  C_10 
REMARK    9  A    between atoms: C_9  and  C_11 
REMARK   10  A    between atoms: C_10  and  C_12 
REMARK   11  A    between atoms: C_11  and  C_13 
REMARK   12  A    between atoms: C_12  and  C_14 
REMARK   13  A    between atoms: C_13  and  C_15 
REMARK   14  A    between atoms: C_14  and  C_16 
REMARK   15  A    between atoms: C_16  and  C_18 
ROOT
HETATM    1  O   UNL     1      30.634   5.294  -6.090  1.00  0.00    -0.776 OA
HETATM    2  H   UNL     1      30.499   6.016  -5.460  1.00  0.00     0.167 HD
ENDROOT
BRANCH   1   3
HETATM    3  C   UNL     1      31.814   5.123  -6.723  1.00  0.00     0.139 C 
HETATM    4  O   UNL     1      32.610   4.293  -6.308  1.00  0.00    -0.650 OA
BRANCH   3   5
HETATM    5  C   UNL     1      32.121   5.963  -7.935  1.00  0.00     0.110 C 
BRANCH   5   6
HETATM    6  C   UNL     1      30.864   6.540  -8.603  1.00  0.00     0.010 C 
BRANCH   6   7
HETATM    7  C   UNL     1      31.182   7.073 -10.005  1.00  0.00     0.001 C 
BRANCH   7   8
HETATM    8  C   UNL     1      31.325   5.924 -11.011  1.00  0.00     0.000 C 
BRANCH   8   9
HETATM    9  C   UNL     1      32.536   6.142 -11.927  1.00  0.00     0.000 C 
BRANCH   9  10
HETATM   10  C   UNL     1      32.450   5.253 -13.172  1.00  0.00     0.000 C 
BRANCH  10  11
HETATM   11  C   UNL     1      31.072   5.367 -13.836  1.00  0.00     0.000 C 
BRANCH  11  12
HETATM   12  C   UNL     1      31.101   6.366 -14.998  1.00  0.00     0.000 C 
BRANCH  12  13
HETATM   13  C   UNL     1      30.928   5.651 -16.343  1.00  0.00     0.000 C 
BRANCH  13  14
HETATM   14  C   UNL     1      32.168   5.832 -17.226  1.00  0.00     0.000 C 
BRANCH  14  15
HETATM   15  C   UNL     1      31.941   5.242 -18.623  1.00  0.00     0.000 C 
BRANCH  15  16
HETATM   16  C   UNL     1      31.099   6.187 -19.489  1.00  0.00     0.000 C 
BRANCH  16  17
HETATM   17  C   UNL     1      31.611   7.628 -19.387  1.00  0.00    -0.000 C 
BRANCH  17  18
HETATM   18  C   UNL     1      30.511   8.568 -18.880  1.00  0.00    -0.005 C 
HETATM   19  C   UNL     1      31.080   9.624 -17.936  1.00  0.00     0.005 C 
ENDBRANCH  17  18
ENDBRANCH  16  17
ENDBRANCH  15  16
ENDBRANCH  14  15
ENDBRANCH  13  14
ENDBRANCH  12  13
ENDBRANCH  11  12
ENDBRANCH  10  11
ENDBRANCH   9  10
ENDBRANCH   8   9
ENDBRANCH   7   8
ENDBRANCH   6   7
ENDBRANCH   5   6
ENDBRANCH   3   5
ENDBRANCH   1   3
TORSDOF 15
ENDMDL
MODEL 17
REMARK VINA RESULT:      -3.5     46.236     48.792
REMARK  15 active torsions:
REMARK  status: ('A' for Active; 'I' for Inactive)
REMARK    1  A    between atoms: O_1  and  C_18 
REMARK    2  A    between atoms: C_3  and  C_4 
REMARK    3  A    between atoms: C_3  and  C_5 
REMARK    4  A    between atoms: C_4  and  C_6 
REMARK    5  A    between atoms: C_5  and  C_7 
REMARK    6  A    between atoms: C_6  and  C_8 
REMARK    7  A    between atoms: C_7  and  C_9 
REMARK    8  A    between atoms: C_8  and  C_10 
REMARK    9  A    between atoms: C_9  and  C_11 
REMARK   10  A    between atoms: C_10  and  C_12 
REMARK   11  A    between atoms: C_11  and  C_13 
REMARK   12  A    between atoms: C_12  and  C_14 
REMARK   13  A    between atoms: C_13  and  C_15 
REMARK   14  A    between atoms: C_14  and  C_16 
REMARK   15  A    between atoms: C_16  and  C_18 
ROOT
HETATM    1  O   UNL     1     -20.422   9.387 -20.830  1.00  0.00    -0.776 OA
HETATM    2  H   UNL     1     -21.248   8.909 -20.986  1.00  0.00     0.167 HD
ENDROOT
BRANCH   1   3
HETATM    3  C   UNL     1     -20.349  10.729 -20.960  1.00  0.00     0.139 C 
HETATM    4  O   UNL     1     -20.248  11.227 -22.072  1.00  0.00    -0.650 OA
BRANCH   3   5
HETATM    5  C   UNL     1     -20.396  11.586 -19.721  1.00  0.00     0.110 C 
BRANCH   5   6
HETATM    6  C   UNL     1     -19.691  12.940 -19.898  1.00  0.00     0.010 C 
BRANCH   6   7
HETATM    7  C   UNL     1     -18.172  12.791 -19.760  1.00  0.00     0.001 C 
BRANCH   7   8
HETATM    8  C   UNL     1     -17.814  11.836 -18.615  1.00  0.00     0.000 C 
BRANCH   8   9
HETATM    9  C   UNL     1     -16.470  11.145 -18.874  1.00  0.00     0.000 C 
BRANCH   9  10
HETATM   10  C   UNL     1     -15.656  11.904 -19.928  1.00  0.00     0.000 C 
BRANCH  10  11
HETATM   11  C   UNL     1     -14.264  11.282 -20.101  1.00  0.00     0.000 C 
BRANCH  11  12
HETATM   12  C   UNL     1     -13.904  10.397 -18.902  1.00  0.00     0.000 C 
BRANCH  12  13
HETATM   13  C   UNL     1     -12.542  10.788 -18.319  1.00  0.00     0.000 C 
BRANCH  13  14
HETATM   14  C   UNL     1     -12.656  11.111 -16.824  1.00  0.00     0.000 C 
BRANCH  14  15
HETATM   15  C   UNL     1     -13.758  10.275 -16.162  1.00  0.00     0.000 C 
BRANCH  15  16
HETATM   16  C   UNL     1     -14.332  10.992 -14.935  1.00  0.00     0.000 C 
BRANCH  16  17
HETATM   17  C   UNL     1     -15.401  12.013 -15.344  1.00  0.00    -0.000 C 
BRANCH  17  18
HETATM   18  C   UNL     1     -16.677  11.834 -14.514  1.00  0.00    -0.005 C 
HETATM   19  C   UNL     1     -17.502  10.653 -15.019  1.00  0.00     0.005 C 
ENDBRANCH  17  18
ENDBRANCH  16  17
ENDBRANCH  15  16
ENDBRANCH  14  15
ENDBRANCH  13  14
ENDBRANCH  12  13
ENDBRANCH  11  12
ENDBRANCH  10  11
ENDBRANCH   9  10
ENDBRANCH   8   9
ENDBRANCH   7   8
ENDBRANCH   6   7
ENDBRANCH   5   6
ENDBRANCH   3   5
ENDBRANCH   1   3
TORSDOF 15
ENDMDL
MODEL 18
REMARK VINA RESULT:      -3.4     45.205     47.630
REMARK  15 active torsions:
REMARK  status: ('A' for Active; 'I' for Inactive)
REMARK    1  A    between atoms: O_1  and  C_18 
REMARK    2  A    between atoms: C_3  and  C_4 
REMARK    3  A    between atoms: C_3  and  C_5 
REMARK    4  A    between atoms: C_4  and  C_6 
REMARK    5  A    between atoms: C_5  and  C_7 
REMARK    6  A    between atoms: C_6  and  C_8 
REMARK    7  A    between atoms: C_7  and  C_9 
REMARK    8  A    between atoms: C_8  and  C_10 
REMARK    9  A    between atoms: C_9  and  C_11 
REMARK   10  A    between atoms: C_10  and  C_12 
REMARK   11  A    between atoms: C_11  and  C_13 
REMARK   12  A    between atoms: C_12  and  C_14 
REMARK   13  A    between atoms: C_13  and  C_15 
REMARK   14  A    between atoms: C_14  and  C_16 
REMARK   15  A    between atoms: C_16  and  C_18 
ROOT
HETATM    1  O   UNL     1     -14.456   8.880 -12.635  1.00  0.00    -0.776 OA
HETATM    2  H   UNL     1     -15.289   9.361 -12.742  1.00  0.00     0.167 HD
ENDROOT
BRANCH   1   3
HETATM    3  C   UNL     1     -13.271   9.525 -12.596  1.00  0.00     0.139 C 
HETATM    4  O   UNL     1     -12.423   9.190 -11.781  1.00  0.00    -0.650 OA
BRANCH   3   5
HETATM    5  C   UNL     1     -13.019  10.650 -13.567  1.00  0.00     0.110 C 
BRANCH   5   6
HETATM    6  C   UNL     1     -14.250  10.998 -14.419  1.00  0.00     0.010 C 
BRANCH   6   7
HETATM    7  C   UNL     1     -13.836  11.670 -15.732  1.00  0.00     0.001 C 
BRANCH   7   8
HETATM    8  C   UNL     1     -13.377  10.630 -16.762  1.00  0.00     0.000 C 
BRANCH   8   9
HETATM    9  C   UNL     1     -14.365  10.540 -17.932  1.00  0.00     0.000 C 
BRANCH   9  10
HETATM   10  C   UNL     1     -13.711  11.000 -19.240  1.00  0.00     0.000 C 
BRANCH  10  11
HETATM   11  C   UNL     1     -14.712  11.764 -20.115  1.00  0.00     0.000 C 
BRANCH  11  12
HETATM   12  C   UNL     1     -16.111  11.143 -20.023  1.00  0.00     0.000 C 
BRANCH  12  13
HETATM   13  C   UNL     1     -17.052  12.028 -19.198  1.00  0.00     0.000 C 
BRANCH  13  14
HETATM   14  C   UNL     1     -17.926  11.182 -18.264  1.00  0.00     0.000 C 
BRANCH  14  15
HETATM   15  C   UNL     1     -17.411  11.244 -16.821  1.00  0.00     0.000 C 
BRANCH  15  16
HETATM   16  C   UNL     1     -18.569  11.413 -15.831  1.00  0.00     0.000 C 
BRANCH  16  17
HETATM   17  C   UNL     1     -18.349  12.635 -14.931  1.00  0.00    -0.000 C 
BRANCH  17  18
HETATM   18  C   UNL     1     -19.555  13.579 -14.982  1.00  0.00    -0.005 C 
HETATM   19  C   UNL     1     -20.510  13.193 -16.108  1.00  0.00     0.005 C 
ENDBRANCH  17  18
ENDBRANCH  16  17
ENDBRANCH  15  16
ENDBRANCH  14  15
ENDBRANCH  13  14
ENDBRANCH  12  13
ENDBRANCH  11  12
ENDBRANCH  10  11
ENDBRANCH   9  10
ENDBRANCH   8   9
ENDBRANCH   7   8
ENDBRANCH   6   7
ENDBRANCH   5   6
ENDBRANCH   3   5
ENDBRANCH   1   3
TORSDOF 15
ENDMDL
MODEL 19
REMARK VINA RESULT:      -3.4      4.362      9.085
REMARK  15 active torsions:
REMARK  status: ('A' for Active; 'I' for Inactive)
REMARK    1  A    between atoms: O_1  and  C_18 
REMARK    2  A    between atoms: C_3  and  C_4 
REMARK    3  A    between atoms: C_3  and  C_5 
REMARK    4  A    between atoms: C_4  and  C_6 
REMARK    5  A    between atoms: C_5  and  C_7 
REMARK    6  A    between atoms: C_6  and  C_8 
REMARK    7  A    between atoms: C_7  and  C_9 
REMARK    8  A    between atoms: C_8  and  C_10 
REMARK    9  A    between atoms: C_9  and  C_11 
REMARK   10  A    between atoms: C_10  and  C_12 
REMARK   11  A    between atoms: C_11  and  C_13 
REMARK   12  A    between atoms: C_12  and  C_14 
REMARK   13  A    between atoms: C_13  and  C_15 
REMARK   14  A    between atoms: C_14  and  C_16 
REMARK   15  A    between atoms: C_16  and  C_18 
ROOT
HETATM    1  O   UNL     1      30.132   6.912 -16.473  1.00  0.00    -0.776 OA
HETATM    2  H   UNL     1      29.167   6.919 -16.411  1.00  0.00     0.167 HD
ENDROOT
BRANCH   1   3
HETATM    3  C   UNL     1      30.807   5.799 -16.831  1.00  0.00     0.139 C 
HETATM    4  O   UNL     1      30.771   5.414 -17.991  1.00  0.00    -0.650 OA
BRANCH   3   5
HETATM    5  C   UNL     1      31.593   5.054 -15.784  1.00  0.00     0.110 C 
BRANCH   5   6
HETATM    6  C   UNL     1      33.110   5.262 -15.908  1.00  0.00     0.010 C 
BRANCH   6   7
HETATM    7  C   UNL     1      33.563   6.489 -15.110  1.00  0.00     0.001 C 
BRANCH   7   8
HETATM    8  C   UNL     1      32.720   6.662 -13.840  1.00  0.00     0.000 C 
BRANCH   8   9
HETATM    9  C   UNL     1      33.535   7.328 -12.725  1.00  0.00     0.000 C 
BRANCH   9  10
HETATM   10  C   UNL     1      32.983   6.957 -11.344  1.00  0.00     0.000 C 
BRANCH  10  11
HETATM   11  C   UNL     1      31.450   7.006 -11.332  1.00  0.00     0.000 C 
BRANCH  11  12
HETATM   12  C   UNL     1      30.946   8.448 -11.199  1.00  0.00     0.000 C 
BRANCH  12  13
HETATM   13  C   UNL     1      30.115   8.625  -9.924  1.00  0.00     0.000 C 
BRANCH  13  14
HETATM   14  C   UNL     1      30.558   9.872  -9.147  1.00  0.00     0.000 C 
BRANCH  14  15
HETATM   15  C   UNL     1      30.901   9.523  -7.694  1.00  0.00     0.000 C 
BRANCH  15  16
HETATM   16  C   UNL     1      31.777   8.267  -7.623  1.00  0.00     0.000 C 
BRANCH  16  17
HETATM   17  C   UNL     1      31.157   7.215  -6.695  1.00  0.00    -0.000 C 
BRANCH  17  18
HETATM   18  C   UNL     1      30.768   5.954  -7.474  1.00  0.00    -0.005 C 
HETATM   19  C   UNL     1      32.005   5.204  -7.961  1.00  0.00     0.005 C 
ENDBRANCH  17  18
ENDBRANCH  16  17
ENDBRANCH  15  16
ENDBRANCH  14  15
ENDBRANCH  13  14
ENDBRANCH  12  13
ENDBRANCH  11  12
ENDBRANCH  10  11
ENDBRANCH   9  10
ENDBRANCH   8   9
ENDBRANCH   7   8
ENDBRANCH   6   7
ENDBRANCH   5   6
ENDBRANCH   3   5
ENDBRANCH   1   3
TORSDOF 15
ENDMDL
MODEL 20
REMARK VINA RESULT:      -3.3      2.859      5.604
REMARK  15 active torsions:
REMARK  status: ('A' for Active; 'I' for Inactive)
REMARK    1  A    between atoms: O_1  and  C_18 
REMARK    2  A    between atoms: C_3  and  C_4 
REMARK    3  A    between atoms: C_3  and  C_5 
REMARK    4  A    between atoms: C_4  and  C_6 
REMARK    5  A    between atoms: C_5  and  C_7 
REMARK    6  A    between atoms: C_6  and  C_8 
REMARK    7  A    between atoms: C_7  and  C_9 
REMARK    8  A    between atoms: C_8  and  C_10 
REMARK    9  A    between atoms: C_9  and  C_11 
REMARK   10  A    between atoms: C_10  and  C_12 
REMARK   11  A    between atoms: C_11  and  C_13 
REMARK   12  A    between atoms: C_12  and  C_14 
REMARK   13  A    between atoms: C_13  and  C_15 
REMARK   14  A    between atoms: C_14  and  C_16 
REMARK   15  A    between atoms: C_16  and  C_18 
ROOT
HETATM    1  O   UNL     1      30.814   5.580  -7.500  1.00  0.00    -0.776 OA
HETATM    2  H   UNL     1      30.536   6.085  -6.724  1.00  0.00     0.167 HD
ENDROOT
BRANCH   1   3
HETATM    3  C   UNL     1      32.025   5.770  -8.066  1.00  0.00     0.139 C 
HETATM    4  O   UNL     1      32.941   4.999  -7.814  1.00  0.00    -0.650 OA
BRANCH   3   5
HETATM    5  C   UNL     1      32.220   6.934  -9.003  1.00  0.00     0.110 C 
BRANCH   5   6
HETATM    6  C   UNL     1      30.925   7.360  -9.712  1.00  0.00     0.010 C 
BRANCH   6   7
HETATM    7  C   UNL     1      31.174   7.617 -11.203  1.00  0.00     0.001 C 
BRANCH   7   8
HETATM    8  C   UNL     1      31.375   6.300 -11.962  1.00  0.00     0.000 C 
BRANCH   8   9
HETATM    9  C   UNL     1      32.546   6.405 -12.947  1.00  0.00     0.000 C 
BRANCH   9  10
HETATM   10  C   UNL     1      32.401   5.386 -14.084  1.00  0.00     0.000 C 
BRANCH  10  11
HETATM   11  C   UNL     1      30.970   5.377 -14.635  1.00  0.00     0.000 C 
BRANCH  11  12
HETATM   12  C   UNL     1      30.748   6.536 -15.614  1.00  0.00     0.000 C 
BRANCH  12  13
HETATM   13  C   UNL     1      30.478   6.016 -17.030  1.00  0.00     0.000 C 
BRANCH  13  14
HETATM   14  C   UNL     1      31.407   6.687 -18.049  1.00  0.00     0.000 C 
BRANCH  14  15
HETATM   15  C   UNL     1      31.014   6.313 -19.483  1.00  0.00     0.000 C 
BRANCH  15  16
HETATM   16  C   UNL     1      32.198   6.488 -20.441  1.00  0.00     0.000 C 
BRANCH  16  17
HETATM   17  C   UNL     1      32.556   5.161 -21.122  1.00  0.00    -0.000 C 
BRANCH  17  18
HETATM   18  C   UNL     1      32.816   5.364 -22.619  1.00  0.00    -0.005 C 
HETATM   19  C   UNL     1      31.512   5.342 -23.413  1.00  0.00     0.005 C 
ENDBRANCH  17  18
ENDBRANCH  16  17
ENDBRANCH  15  16
ENDBRANCH  14  15
ENDBRANCH  13  14
ENDBRANCH  12  13
ENDBRANCH  11  12
ENDBRANCH  10  11
ENDBRANCH   9  10
ENDBRANCH   8   9
ENDBRANCH   7   8
ENDBRANCH   6   7
ENDBRANCH   5   6
ENDBRANCH   3   5
ENDBRANCH   1   3
TORSDOF 15
ENDMDL
