MODEL 1
REMARK VINA RESULT:      -5.4      0.000      0.000
REMARK  15 active torsions:
REMARK  status: ('A' for Active; 'I' for Inactive)
REMARK    1  A    between atoms: O_1  and  C_23 
REMARK    2  A    between atoms: C_3  and  C_7 
REMARK    3  A    between atoms: C_3  and  C_8 
REMARK    4  A    between atoms: C_4  and  C_10 
REMARK    5  A    between atoms: C_4  and  C_11 
REMARK    6  A    between atoms: C_5  and  C_12 
REMARK    7  A    between atoms: C_5  and  C_13 
REMARK    8  A    between atoms: C_6  and  C_15 
REMARK    9  A    between atoms: C_6  and  C_16 
REMARK   10  A    between atoms: C_7  and  C_23 
REMARK   11  A    between atoms: C_9  and  C_17 
REMARK   12  A    between atoms: C_9  and  C_18 
REMARK   13  A    between atoms: C_14  and  C_19 
REMARK   14  A    between atoms: C_14  and  C_20 
REMARK   15  A    between atoms: C_21  and  C_22 
ROOT
HETATM    1  O   UNL     1      29.029  12.183 -13.727  1.00  0.00    -0.776 OA
HETATM    2  H   UNL     1      28.972  12.374 -12.781  1.00  0.00     0.167 HD
ENDROOT
BRANCH   1   3
HETATM    3  C   UNL     1      28.995  10.916 -14.193  1.00  0.00     0.139 C 
HETATM    4  O   UNL     1      27.921  10.372 -14.409  1.00  0.00    -0.650 OA
BRANCH   3   5
HETATM    5  C   UNL     1      30.279  10.180 -14.448  1.00  0.00     0.113 C 
BRANCH   5   6
HETATM    6  C   UNL     1      30.008   8.711 -14.794  1.00  0.00     0.037 C 
BRANCH   6   7
HETATM    7  C   UNL     1      30.636   8.352 -16.119  1.00  0.00    -0.030 C 
HETATM    8  C   UNL     1      30.890   7.112 -16.588  1.00  0.00    -0.027 C 
BRANCH   8   9
HETATM    9  C   UNL     1      30.609   5.792 -15.902  1.00  0.00     0.053 C 
BRANCH   9  10
HETATM   10  C   UNL     1      31.889   5.149 -15.431  1.00  0.00    -0.027 C 
HETATM   11  C   UNL     1      32.518   5.409 -14.271  1.00  0.00    -0.027 C 
BRANCH  11  12
HETATM   12  C   UNL     1      32.027   6.351 -13.203  1.00  0.00     0.053 C 
BRANCH  12  13
HETATM   13  C   UNL     1      33.182   7.049 -12.529  1.00  0.00    -0.027 C 
HETATM   14  C   UNL     1      33.904   8.070 -13.026  1.00  0.00    -0.027 C 
BRANCH  14  15
HETATM   15  C   UNL     1      33.737   8.695 -14.386  1.00  0.00     0.053 C 
BRANCH  15  16
HETATM   16  C   UNL     1      34.611   7.949 -15.369  1.00  0.00    -0.027 C 
HETATM   17  C   UNL     1      34.655   8.086 -16.710  1.00  0.00    -0.027 C 
BRANCH  17  18
HETATM   18  C   UNL     1      33.848   9.038 -17.553  1.00  0.00     0.053 C 
BRANCH  18  19
HETATM   19  C   UNL     1      34.103   8.795 -19.022  1.00  0.00    -0.027 C 
HETATM   20  C   UNL     1      33.638   7.781 -19.780  1.00  0.00    -0.027 C 
BRANCH  20  21
HETATM   21  C   UNL     1      32.706   6.676 -19.347  1.00  0.00     0.053 C 
BRANCH  21  22
HETATM   22  C   UNL     1      33.135   5.351 -19.933  1.00  0.00    -0.027 C 
HETATM   23  C   UNL     1      32.795   4.842 -21.134  1.00  0.00    -0.031 C 
BRANCH  23  24
HETATM   24  C   UNL     1      31.892   5.482 -22.156  1.00  0.00     0.022 C 
HETATM   25  C   UNL     1      30.416   5.308 -21.820  1.00  0.00     0.009 C 
ENDBRANCH  23  24
ENDBRANCH  21  22
ENDBRANCH  20  21
ENDBRANCH  18  19
ENDBRANCH  17  18
ENDBRANCH  15  16
ENDBRANCH  14  15
ENDBRANCH  12  13
ENDBRANCH  11  12
ENDBRANCH   9  10
ENDBRANCH   8   9
ENDBRANCH   6   7
ENDBRANCH   5   6
ENDBRANCH   3   5
ENDBRANCH   1   3
TORSDOF 15
ENDMDL
MODEL 2
REMARK VINA RESULT:      -5.0     44.530     47.315
REMARK  15 active torsions:
REMARK  status: ('A' for Active; 'I' for Inactive)
REMARK    1  A    between atoms: O_1  and  C_23 
REMARK    2  A    between atoms: C_3  and  C_7 
REMARK    3  A    between atoms: C_3  and  C_8 
REMARK    4  A    between atoms: C_4  and  C_10 
REMARK    5  A    between atoms: C_4  and  C_11 
REMARK    6  A    between atoms: C_5  and  C_12 
REMARK    7  A    between atoms: C_5  and  C_13 
REMARK    8  A    between atoms: C_6  and  C_15 
REMARK    9  A    between atoms: C_6  and  C_16 
REMARK   10  A    between atoms: C_7  and  C_23 
REMARK   11  A    between atoms: C_9  and  C_17 
REMARK   12  A    between atoms: C_9  and  C_18 
REMARK   13  A    between atoms: C_14  and  C_19 
REMARK   14  A    between atoms: C_14  and  C_20 
REMARK   15  A    between atoms: C_21  and  C_22 
ROOT
HETATM    1  O   UNL     1     -10.902  11.261 -11.549  1.00  0.00    -0.776 OA
HETATM    2  H   UNL     1     -10.539  11.092 -12.429  1.00  0.00     0.167 HD
ENDROOT
BRANCH   1   3
HETATM    3  C   UNL     1     -12.142  10.849 -11.208  1.00  0.00     0.139 C 
HETATM    4  O   UNL     1     -12.436  10.704 -10.030  1.00  0.00    -0.650 OA
BRANCH   3   5
HETATM    5  C   UNL     1     -13.158  10.574 -12.279  1.00  0.00     0.113 C 
BRANCH   5   6
HETATM    6  C   UNL     1     -14.571  10.504 -11.689  1.00  0.00     0.037 C 
BRANCH   6   7
HETATM    7  C   UNL     1     -15.370   9.407 -12.350  1.00  0.00    -0.030 C 
HETATM    8  C   UNL     1     -16.599   9.515 -12.898  1.00  0.00    -0.027 C 
BRANCH   8   9
HETATM    9  C   UNL     1     -17.465  10.754 -12.982  1.00  0.00     0.053 C 
BRANCH   9  10
HETATM   10  C   UNL     1     -16.811  11.810 -13.837  1.00  0.00    -0.027 C 
HETATM   11  C   UNL     1     -17.130  12.096 -15.112  1.00  0.00    -0.027 C 
BRANCH  11  12
HETATM   12  C   UNL     1     -18.241  11.453 -15.901  1.00  0.00     0.053 C 
BRANCH  12  13
HETATM   13  C   UNL     1     -17.705  10.361 -16.792  1.00  0.00    -0.027 C 
HETATM   14  C   UNL     1     -17.112  10.521 -17.990  1.00  0.00    -0.027 C 
BRANCH  14  15
HETATM   15  C   UNL     1     -16.906  11.827 -18.710  1.00  0.00     0.053 C 
BRANCH  15  16
HETATM   16  C   UNL     1     -16.725  11.539 -20.184  1.00  0.00    -0.027 C 
HETATM   17  C   UNL     1     -15.570  11.416 -20.869  1.00  0.00    -0.027 C 
BRANCH  17  18
HETATM   18  C   UNL     1     -14.172  11.516 -20.319  1.00  0.00     0.053 C 
BRANCH  18  19
HETATM   19  C   UNL     1     -13.694  10.169 -19.829  1.00  0.00    -0.027 C 
HETATM   20  C   UNL     1     -13.034   9.899 -18.684  1.00  0.00    -0.027 C 
BRANCH  20  21
HETATM   21  C   UNL     1     -12.667  10.876 -17.594  1.00  0.00     0.053 C 
BRANCH  21  22
HETATM   22  C   UNL     1     -13.770  10.976 -16.567  1.00  0.00    -0.027 C 
HETATM   23  C   UNL     1     -14.174  10.019 -15.708  1.00  0.00    -0.031 C 
BRANCH  23  24
HETATM   24  C   UNL     1     -13.621   8.622 -15.597  1.00  0.00     0.022 C 
HETATM   25  C   UNL     1     -14.716   7.562 -15.567  1.00  0.00     0.009 C 
ENDBRANCH  23  24
ENDBRANCH  21  22
ENDBRANCH  20  21
ENDBRANCH  18  19
ENDBRANCH  17  18
ENDBRANCH  15  16
ENDBRANCH  14  15
ENDBRANCH  12  13
ENDBRANCH  11  12
ENDBRANCH   9  10
ENDBRANCH   8   9
ENDBRANCH   6   7
ENDBRANCH   5   6
ENDBRANCH   3   5
ENDBRANCH   1   3
TORSDOF 15
ENDMDL
MODEL 3
REMARK VINA RESULT:      -5.0      2.948      7.547
REMARK  15 active torsions:
REMARK  status: ('A' for Active; 'I' for Inactive)
REMARK    1  A    between atoms: O_1  and  C_23 
REMARK    2  A    between atoms: C_3  and  C_7 
REMARK    3  A    between atoms: C_3  and  C_8 
REMARK    4  A    between atoms: C_4  and  C_10 
REMARK    5  A    between atoms: C_4  and  C_11 
REMARK    6  A    between atoms: C_5  and  C_12 
REMARK    7  A    between atoms: C_5  and  C_13 
REMARK    8  A    between atoms: C_6  and  C_15 
REMARK    9  A    between atoms: C_6  and  C_16 
REMARK   10  A    between atoms: C_7  and  C_23 
REMARK   11  A    between atoms: C_9  and  C_17 
REMARK   12  A    between atoms: C_9  and  C_18 
REMARK   13  A    between atoms: C_14  and  C_19 
REMARK   14  A    between atoms: C_14  and  C_20 
REMARK   15  A    between atoms: C_21  and  C_22 
ROOT
HETATM    1  O   UNL     1      30.224   4.640 -17.391  1.00  0.00    -0.776 OA
HETATM    2  H   UNL     1      29.321   4.335 -17.226  1.00  0.00     0.167 HD
ENDROOT
BRANCH   1   3
HETATM    3  C   UNL     1      30.699   5.772 -16.827  1.00  0.00     0.139 C 
HETATM    4  O   UNL     1      29.930   6.671 -16.517  1.00  0.00    -0.650 OA
BRANCH   3   5
HETATM    5  C   UNL     1      32.173   5.920 -16.580  1.00  0.00     0.113 C 
BRANCH   5   6
HETATM    6  C   UNL     1      32.585   7.396 -16.595  1.00  0.00     0.037 C 
BRANCH   6   7
HETATM    7  C   UNL     1      34.088   7.531 -16.534  1.00  0.00    -0.030 C 
HETATM    8  C   UNL     1      34.812   8.125 -15.562  1.00  0.00    -0.027 C 
BRANCH   8   9
HETATM    9  C   UNL     1      34.294   8.796 -14.308  1.00  0.00     0.053 C 
BRANCH   9  10
HETATM   10  C   UNL     1      34.444  10.294 -14.399  1.00  0.00    -0.027 C 
HETATM   11  C   UNL     1      33.658  11.200 -13.791  1.00  0.00    -0.027 C 
BRANCH  11  12
HETATM   12  C   UNL     1      32.517  10.883 -12.860  1.00  0.00     0.053 C 
BRANCH  12  13
HETATM   13  C   UNL     1      31.316  10.390 -13.627  1.00  0.00    -0.027 C 
HETATM   14  C   UNL     1      30.656   9.233 -13.430  1.00  0.00    -0.027 C 
BRANCH  14  15
HETATM   15  C   UNL     1      31.015   8.167 -12.430  1.00  0.00     0.053 C 
BRANCH  15  16
HETATM   16  C   UNL     1      31.140   6.847 -13.158  1.00  0.00    -0.027 C 
HETATM   17  C   UNL     1      32.064   5.883 -12.973  1.00  0.00    -0.027 C 
BRANCH  17  18
HETATM   18  C   UNL     1      33.191   5.883 -11.973  1.00  0.00     0.053 C 
BRANCH  18  19
HETATM   19  C   UNL     1      32.869   4.977 -10.807  1.00  0.00    -0.027 C 
HETATM   20  C   UNL     1      32.402   5.336  -9.594  1.00  0.00    -0.027 C 
BRANCH  20  21
HETATM   21  C   UNL     1      32.037   6.725  -9.134  1.00  0.00     0.053 C 
BRANCH  21  22
HETATM   22  C   UNL     1      33.148   7.326  -8.303  1.00  0.00    -0.027 C 
HETATM   23  C   UNL     1      33.956   8.349  -8.642  1.00  0.00    -0.031 C 
BRANCH  23  24
HETATM   24  C   UNL     1      33.943   9.112  -9.941  1.00  0.00     0.022 C 
HETATM   25  C   UNL     1      35.093   8.720 -10.860  1.00  0.00     0.009 C 
ENDBRANCH  23  24
ENDBRANCH  21  22
ENDBRANCH  20  21
ENDBRANCH  18  19
ENDBRANCH  17  18
ENDBRANCH  15  16
ENDBRANCH  14  15
ENDBRANCH  12  13
ENDBRANCH  11  12
ENDBRANCH   9  10
ENDBRANCH   8   9
ENDBRANCH   6   7
ENDBRANCH   5   6
ENDBRANCH   3   5
ENDBRANCH   1   3
TORSDOF 15
ENDMDL
MODEL 4
REMARK VINA RESULT:      -4.9      5.900      9.500
REMARK  15 active torsions:
REMARK  status: ('A' for Active; 'I' for Inactive)
REMARK    1  A    between atoms: O_1  and  C_23 
REMARK    2  A    between atoms: C_3  and  C_7 
REMARK    3  A    between atoms: C_3  and  C_8 
REMARK    4  A    between atoms: C_4  and  C_10 
REMARK    5  A    between atoms: C_4  and  C_11 
REMARK    6  A    between atoms: C_5  and  C_12 
REMARK    7  A    between atoms: C_5  and  C_13 
REMARK    8  A    between atoms: C_6  and  C_15 
REMARK    9  A    between atoms: C_6  and  C_16 
REMARK   10  A    between atoms: C_7  and  C_23 
REMARK   11  A    between atoms: C_9  and  C_17 
REMARK   12  A    between atoms: C_9  and  C_18 
REMARK   13  A    between atoms: C_14  and  C_19 
REMARK   14  A    between atoms: C_14  and  C_20 
REMARK   15  A    between atoms: C_21  and  C_22 
ROOT
HETATM    1  O   UNL     1      27.878  10.486  -9.627  1.00  0.00    -0.776 OA
HETATM    2  H   UNL     1      27.621  10.384 -10.554  1.00  0.00     0.167 HD
ENDROOT
BRANCH   1   3
HETATM    3  C   UNL     1      29.141  10.813  -9.279  1.00  0.00     0.139 C 
HETATM    4  O   UNL     1      29.550  11.952  -9.457  1.00  0.00    -0.650 OA
BRANCH   3   5
HETATM    5  C   UNL     1      30.040   9.775  -8.669  1.00  0.00     0.113 C 
BRANCH   5   6
HETATM    6  C   UNL     1      31.133   9.351  -9.656  1.00  0.00     0.037 C 
BRANCH   6   7
HETATM    7  C   UNL     1      30.567   8.438 -10.717  1.00  0.00    -0.030 C 
HETATM    8  C   UNL     1      31.262   7.706 -11.614  1.00  0.00    -0.027 C 
BRANCH   8   9
HETATM    9  C   UNL     1      32.766   7.626 -11.771  1.00  0.00     0.053 C 
BRANCH   9  10
HETATM   10  C   UNL     1      33.229   6.191 -11.774  1.00  0.00    -0.027 C 
HETATM   11  C   UNL     1      33.302   5.387 -10.698  1.00  0.00    -0.027 C 
BRANCH  11  12
HETATM   12  C   UNL     1      32.877   5.756  -9.300  1.00  0.00     0.053 C 
BRANCH  12  13
HETATM   13  C   UNL     1      31.523   5.175  -8.977  1.00  0.00    -0.027 C 
HETATM   14  C   UNL     1      30.712   5.542  -7.967  1.00  0.00    -0.027 C 
BRANCH  14  15
HETATM   15  C   UNL     1      31.015   6.578  -6.918  1.00  0.00     0.053 C 
BRANCH  15  16
HETATM   16  C   UNL     1      31.398   5.869  -5.638  1.00  0.00    -0.027 C 
HETATM   17  C   UNL     1      32.636   5.564  -5.198  1.00  0.00    -0.027 C 
BRANCH  17  18
HETATM   18  C   UNL     1      33.944   5.878  -5.874  1.00  0.00     0.053 C 
BRANCH  18  19
HETATM   19  C   UNL     1      34.445   7.242  -5.461  1.00  0.00    -0.027 C 
HETATM   20  C   UNL     1      34.380   8.389  -6.167  1.00  0.00    -0.027 C 
BRANCH  20  21
HETATM   21  C   UNL     1      33.740   8.591  -7.518  1.00  0.00     0.053 C 
BRANCH  21  22
HETATM   22  C   UNL     1      34.672   9.331  -8.450  1.00  0.00    -0.027 C 
HETATM   23  C   UNL     1      34.646  10.643  -8.754  1.00  0.00    -0.031 C 
BRANCH  23  24
HETATM   24  C   UNL     1      33.664  11.664  -8.244  1.00  0.00     0.022 C 
HETATM   25  C   UNL     1      34.013  12.163  -6.847  1.00  0.00     0.009 C 
ENDBRANCH  23  24
ENDBRANCH  21  22
ENDBRANCH  20  21
ENDBRANCH  18  19
ENDBRANCH  17  18
ENDBRANCH  15  16
ENDBRANCH  14  15
ENDBRANCH  12  13
ENDBRANCH  11  12
ENDBRANCH   9  10
ENDBRANCH   8   9
ENDBRANCH   6   7
ENDBRANCH   5   6
ENDBRANCH   3   5
ENDBRANCH   1   3
TORSDOF 15
ENDMDL
MODEL 5
REMARK VINA RESULT:      -4.9      2.517      4.727
REMARK  15 active torsions:
REMARK  status: ('A' for Active; 'I' for Inactive)
REMARK    1  A    between atoms: O_1  and  C_23 
REMARK    2  A    between atoms: C_3  and  C_7 
REMARK    3  A    between atoms: C_3  and  C_8 
REMARK    4  A    between atoms: C_4  and  C_10 
REMARK    5  A    between atoms: C_4  and  C_11 
REMARK    6  A    between atoms: C_5  and  C_12 
REMARK    7  A    between atoms: C_5  and  C_13 
REMARK    8  A    between atoms: C_6  and  C_15 
REMARK    9  A    between atoms: C_6  and  C_16 
REMARK   10  A    between atoms: C_7  and  C_23 
REMARK   11  A    between atoms: C_9  and  C_17 
REMARK   12  A    between atoms: C_9  and  C_18 
REMARK   13  A    between atoms: C_14  and  C_19 
REMARK   14  A    between atoms: C_14  and  C_20 
REMARK   15  A    between atoms: C_21  and  C_22 
ROOT
HETATM    1  O   UNL     1      29.756   4.552 -17.309  1.00  0.00    -0.776 OA
HETATM    2  H   UNL     1      30.107   4.265 -18.163  1.00  0.00     0.167 HD
ENDROOT
BRANCH   1   3
HETATM    3  C   UNL     1      30.351   5.533 -16.597  1.00  0.00     0.139 C 
HETATM    4  O   UNL     1      29.949   6.685 -16.687  1.00  0.00    -0.650 OA
BRANCH   3   5
HETATM    5  C   UNL     1      31.504   5.205 -15.692  1.00  0.00     0.113 C 
BRANCH   5   6
HETATM    6  C   UNL     1      31.136   5.454 -14.225  1.00  0.00     0.037 C 
BRANCH   6   7
HETATM    7  C   UNL     1      32.377   5.500 -13.366  1.00  0.00    -0.030 C 
HETATM    8  C   UNL     1      33.321   6.464 -13.353  1.00  0.00    -0.027 C 
BRANCH   8   9
HETATM    9  C   UNL     1      33.364   7.724 -14.193  1.00  0.00     0.053 C 
BRANCH   9  10
HETATM   10  C   UNL     1      34.419   7.619 -15.264  1.00  0.00    -0.027 C 
HETATM   11  C   UNL     1      34.241   7.883 -16.571  1.00  0.00    -0.027 C 
BRANCH  11  12
HETATM   12  C   UNL     1      32.966   8.388 -17.194  1.00  0.00     0.053 C 
BRANCH  12  13
HETATM   13  C   UNL     1      32.908   9.895 -17.157  1.00  0.00    -0.027 C 
HETATM   14  C   UNL     1      31.800  10.654 -17.072  1.00  0.00    -0.027 C 
BRANCH  14  15
HETATM   15  C   UNL     1      30.381  10.152 -17.047  1.00  0.00     0.053 C 
BRANCH  15  16
HETATM   16  C   UNL     1      29.646  10.727 -18.238  1.00  0.00    -0.027 C 
HETATM   17  C   UNL     1      29.838  10.448 -19.543  1.00  0.00    -0.027 C 
BRANCH  17  18
HETATM   18  C   UNL     1      30.825   9.474 -20.129  1.00  0.00     0.053 C 
BRANCH  18  19
HETATM   19  C   UNL     1      30.399   8.051 -19.853  1.00  0.00    -0.027 C 
HETATM   20  C   UNL     1      30.945   6.920 -20.345  1.00  0.00    -0.027 C 
BRANCH  20  21
HETATM   21  C   UNL     1      32.149   6.809 -21.247  1.00  0.00     0.053 C 
BRANCH  21  22
HETATM   22  C   UNL     1      33.400   6.540 -20.444  1.00  0.00    -0.027 C 
HETATM   23  C   UNL     1      34.524   7.283 -20.412  1.00  0.00    -0.031 C 
BRANCH  23  24
HETATM   24  C   UNL     1      34.787   8.546 -21.191  1.00  0.00     0.022 C 
HETATM   25  C   UNL     1      34.564   9.802 -20.359  1.00  0.00     0.009 C 
ENDBRANCH  23  24
ENDBRANCH  21  22
ENDBRANCH  20  21
ENDBRANCH  18  19
ENDBRANCH  17  18
ENDBRANCH  15  16
ENDBRANCH  14  15
ENDBRANCH  12  13
ENDBRANCH  11  12
ENDBRANCH   9  10
ENDBRANCH   8   9
ENDBRANCH   6   7
ENDBRANCH   5   6
ENDBRANCH   3   5
ENDBRANCH   1   3
TORSDOF 15
ENDMDL
MODEL 6
REMARK VINA RESULT:      -4.8     44.967     48.311
REMARK  15 active torsions:
REMARK  status: ('A' for Active; 'I' for Inactive)
REMARK    1  A    between atoms: O_1  and  C_23 
REMARK    2  A    between atoms: C_3  and  C_7 
REMARK    3  A    between atoms: C_3  and  C_8 
REMARK    4  A    between atoms: C_4  and  C_10 
REMARK    5  A    between atoms: C_4  and  C_11 
REMARK    6  A    between atoms: C_5  and  C_12 
REMARK    7  A    between atoms: C_5  and  C_13 
REMARK    8  A    between atoms: C_6  and  C_15 
REMARK    9  A    between atoms: C_6  and  C_16 
REMARK   10  A    between atoms: C_7  and  C_23 
REMARK   11  A    between atoms: C_9  and  C_17 
REMARK   12  A    between atoms: C_9  and  C_18 
REMARK   13  A    between atoms: C_14  and  C_19 
REMARK   14  A    between atoms: C_14  and  C_20 
REMARK   15  A    between atoms: C_21  and  C_22 
ROOT
HETATM    1  O   UNL     1     -11.132  11.357 -11.752  1.00  0.00    -0.776 OA
HETATM    2  H   UNL     1     -10.552  10.978 -12.425  1.00  0.00     0.167 HD
ENDROOT
BRANCH   1   3
HETATM    3  C   UNL     1     -12.433  11.007 -11.665  1.00  0.00     0.139 C 
HETATM    4  O   UNL     1     -13.062  11.234 -10.641  1.00  0.00    -0.650 OA
BRANCH   3   5
HETATM    5  C   UNL     1     -13.106  10.343 -12.832  1.00  0.00     0.113 C 
BRANCH   5   6
HETATM    6  C   UNL     1     -12.629  10.949 -14.157  1.00  0.00     0.037 C 
BRANCH   6   7
HETATM    7  C   UNL     1     -13.804  11.259 -15.054  1.00  0.00    -0.030 C 
HETATM    8  C   UNL     1     -13.876  11.077 -16.390  1.00  0.00    -0.027 C 
BRANCH   8   9
HETATM    9  C   UNL     1     -12.804  10.522 -17.303  1.00  0.00     0.053 C 
BRANCH   9  10
HETATM   10  C   UNL     1     -13.354   9.413 -18.164  1.00  0.00    -0.027 C 
HETATM   11  C   UNL     1     -13.749   9.534 -19.444  1.00  0.00    -0.027 C 
BRANCH  11  12
HETATM   12  C   UNL     1     -13.658  10.789 -20.272  1.00  0.00     0.053 C 
BRANCH  12  13
HETATM   13  C   UNL     1     -14.691  11.798 -19.835  1.00  0.00    -0.027 C 
HETATM   14  C   UNL     1     -16.001  11.792 -20.146  1.00  0.00    -0.027 C 
BRANCH  14  15
HETATM   15  C   UNL     1     -16.695  10.799 -21.040  1.00  0.00     0.053 C 
BRANCH  15  16
HETATM   16  C   UNL     1     -17.560  11.558 -22.022  1.00  0.00    -0.027 C 
HETATM   17  C   UNL     1     -18.847  11.931 -21.876  1.00  0.00    -0.027 C 
BRANCH  17  18
HETATM   18  C   UNL     1     -19.733  11.695 -20.681  1.00  0.00     0.053 C 
BRANCH  18  19
HETATM   19  C   UNL     1     -19.536  12.780 -19.648  1.00  0.00    -0.027 C 
HETATM   20  C   UNL     1     -19.147  12.630 -18.365  1.00  0.00    -0.027 C 
BRANCH  20  21
HETATM   21  C   UNL     1     -18.765  11.345 -17.674  1.00  0.00     0.053 C 
BRANCH  21  22
HETATM   22  C   UNL     1     -17.533  11.539 -16.821  1.00  0.00    -0.027 C 
HETATM   23  C   UNL     1     -17.489  11.914 -15.527  1.00  0.00    -0.031 C 
BRANCH  23  24
HETATM   24  C   UNL     1     -18.666  12.242 -14.647  1.00  0.00     0.022 C 
HETATM   25  C   UNL     1     -19.448  13.451 -15.146  1.00  0.00     0.009 C 
ENDBRANCH  23  24
ENDBRANCH  21  22
ENDBRANCH  20  21
ENDBRANCH  18  19
ENDBRANCH  17  18
ENDBRANCH  15  16
ENDBRANCH  14  15
ENDBRANCH  12  13
ENDBRANCH  11  12
ENDBRANCH   9  10
ENDBRANCH   8   9
ENDBRANCH   6   7
ENDBRANCH   5   6
ENDBRANCH   3   5
ENDBRANCH   1   3
TORSDOF 15
ENDMDL
MODEL 7
REMARK VINA RESULT:      -4.7      2.837      3.903
REMARK  15 active torsions:
REMARK  status: ('A' for Active; 'I' for Inactive)
REMARK    1  A    between atoms: O_1  and  C_23 
REMARK    2  A    between atoms: C_3  and  C_7 
REMARK    3  A    between atoms: C_3  and  C_8 
REMARK    4  A    between atoms: C_4  and  C_10 
REMARK    5  A    between atoms: C_4  and  C_11 
REMARK    6  A    between atoms: C_5  and  C_12 
REMARK    7  A    between atoms: C_5  and  C_13 
REMARK    8  A    between atoms: C_6  and  C_15 
REMARK    9  A    between atoms: C_6  and  C_16 
REMARK   10  A    between atoms: C_7  and  C_23 
REMARK   11  A    between atoms: C_9  and  C_17 
REMARK   12  A    between atoms: C_9  and  C_18 
REMARK   13  A    between atoms: C_14  and  C_19 
REMARK   14  A    between atoms: C_14  and  C_20 
REMARK   15  A    between atoms: C_21  and  C_22 
ROOT
HETATM    1  O   UNL     1      28.806  12.217 -13.668  1.00  0.00    -0.776 OA
HETATM    2  H   UNL     1      28.656  12.373 -12.725  1.00  0.00     0.167 HD
ENDROOT
BRANCH   1   3
HETATM    3  C   UNL     1      28.876  10.966 -14.171  1.00  0.00     0.139 C 
HETATM    4  O   UNL     1      27.861  10.400 -14.550  1.00  0.00    -0.650 OA
BRANCH   3   5
HETATM    5  C   UNL     1      30.206  10.274 -14.267  1.00  0.00     0.113 C 
BRANCH   5   6
HETATM    6  C   UNL     1      30.054   8.880 -14.887  1.00  0.00     0.037 C 
BRANCH   6   7
HETATM    7  C   UNL     1      31.402   8.322 -15.279  1.00  0.00    -0.030 C 
HETATM    8  C   UNL     1      31.807   7.038 -15.186  1.00  0.00    -0.027 C 
BRANCH   8   9
HETATM    9  C   UNL     1      31.014   5.856 -14.670  1.00  0.00     0.053 C 
BRANCH   9  10
HETATM   10  C   UNL     1      31.745   5.171 -13.543  1.00  0.00    -0.027 C 
HETATM   11  C   UNL     1      31.490   5.327 -12.231  1.00  0.00    -0.027 C 
BRANCH  11  12
HETATM   12  C   UNL     1      30.387   6.172 -11.650  1.00  0.00     0.053 C 
BRANCH  12  13
HETATM   13  C   UNL     1      30.868   6.923 -10.433  1.00  0.00    -0.027 C 
HETATM   14  C   UNL     1      31.585   8.063 -10.425  1.00  0.00    -0.027 C 
BRANCH  14  15
HETATM   15  C   UNL     1      32.096   8.798 -11.635  1.00  0.00     0.053 C 
BRANCH  15  16
HETATM   16  C   UNL     1      33.455   8.242 -11.997  1.00  0.00    -0.027 C 
HETATM   17  C   UNL     1      34.361   8.757 -12.852  1.00  0.00    -0.027 C 
BRANCH  17  18
HETATM   18  C   UNL     1      34.241  10.033 -13.644  1.00  0.00     0.053 C 
BRANCH  18  19
HETATM   19  C   UNL     1      35.456  10.234 -14.519  1.00  0.00    -0.027 C 
HETATM   20  C   UNL     1      35.671   9.733 -15.753  1.00  0.00    -0.027 C 
BRANCH  20  21
HETATM   21  C   UNL     1      34.721   8.895 -16.573  1.00  0.00     0.053 C 
BRANCH  21  22
HETATM   22  C   UNL     1      34.325   9.617 -17.840  1.00  0.00    -0.027 C 
HETATM   23  C   UNL     1      33.441  10.627 -17.961  1.00  0.00    -0.031 C 
BRANCH  23  24
HETATM   24  C   UNL     1      32.634  11.250 -16.853  1.00  0.00     0.022 C 
HETATM   25  C   UNL     1      31.868  12.484 -17.312  1.00  0.00     0.009 C 
ENDBRANCH  23  24
ENDBRANCH  21  22
ENDBRANCH  20  21
ENDBRANCH  18  19
ENDBRANCH  17  18
ENDBRANCH  15  16
ENDBRANCH  14  15
ENDBRANCH  12  13
ENDBRANCH  11  12
ENDBRANCH   9  10
ENDBRANCH   8   9
ENDBRANCH   6   7
ENDBRANCH   5   6
ENDBRANCH   3   5
ENDBRANCH   1   3
TORSDOF 15
ENDMDL
MODEL 8
REMARK VINA RESULT:      -4.6      5.896      9.068
REMARK  15 active torsions:
REMARK  status: ('A' for Active; 'I' for Inactive)
REMARK    1  A    between atoms: O_1  and  C_23 
REMARK    2  A    between atoms: C_3  and  C_7 
REMARK    3  A    between atoms: C_3  and  C_8 
REMARK    4  A    between atoms: C_4  and  C_10 
REMARK    5  A    between atoms: C_4  and  C_11 
REMARK    6  A    between atoms: C_5  and  C_12 
REMARK    7  A    between atoms: C_5  and  C_13 
REMARK    8  A    between atoms: C_6  and  C_15 
REMARK    9  A    between atoms: C_6  and  C_16 
REMARK   10  A    between atoms: C_7  and  C_23 
REMARK   11  A    between atoms: C_9  and  C_17 
REMARK   12  A    between atoms: C_9  and  C_18 
REMARK   13  A    between atoms: C_14  and  C_19 
REMARK   14  A    between atoms: C_14  and  C_20 
REMARK   15  A    between atoms: C_21  and  C_22 
ROOT
HETATM    1  O   UNL     1      27.990  10.396  -9.370  1.00  0.00    -0.776 OA
HETATM    2  H   UNL     1      28.457   9.670  -8.934  1.00  0.00     0.167 HD
ENDROOT
BRANCH   1   3
HETATM    3  C   UNL     1      28.527  11.633  -9.450  1.00  0.00     0.139 C 
HETATM    4  O   UNL     1      28.483  12.253 -10.503  1.00  0.00    -0.650 OA
BRANCH   3   5
HETATM    5  C   UNL     1      29.174  12.244  -8.240  1.00  0.00     0.113 C 
BRANCH   5   6
HETATM    6  C   UNL     1      29.941  11.187  -7.437  1.00  0.00     0.037 C 
BRANCH   6   7
HETATM    7  C   UNL     1      30.508  11.788  -6.173  1.00  0.00    -0.030 C 
HETATM    8  C   UNL     1      31.525  11.303  -5.429  1.00  0.00    -0.027 C 
BRANCH   8   9
HETATM    9  C   UNL     1      32.336  10.050  -5.681  1.00  0.00     0.053 C 
BRANCH   9  10
HETATM   10  C   UNL     1      31.903   8.936  -4.761  1.00  0.00    -0.027 C 
HETATM   11  C   UNL     1      31.178   7.861  -5.118  1.00  0.00    -0.027 C 
BRANCH  11  12
HETATM   12  C   UNL     1      30.715   7.543  -6.515  1.00  0.00     0.053 C 
BRANCH  12  13
HETATM   13  C   UNL     1      30.341   6.086  -6.640  1.00  0.00    -0.027 C 
HETATM   14  C   UNL     1      30.698   5.248  -7.631  1.00  0.00    -0.027 C 
BRANCH  14  15
HETATM   15  C   UNL     1      31.508   5.607  -8.848  1.00  0.00     0.053 C 
BRANCH  15  16
HETATM   16  C   UNL     1      30.669   5.342 -10.079  1.00  0.00    -0.027 C 
HETATM   17  C   UNL     1      30.678   6.013 -11.248  1.00  0.00    -0.027 C 
BRANCH  17  18
HETATM   18  C   UNL     1      31.548   7.186 -11.616  1.00  0.00     0.053 C 
BRANCH  18  19
HETATM   19  C   UNL     1      30.911   8.482 -11.171  1.00  0.00    -0.027 C 
HETATM   20  C   UNL     1      31.307   9.288 -10.165  1.00  0.00    -0.027 C 
BRANCH  20  21
HETATM   21  C   UNL     1      32.516   9.111  -9.279  1.00  0.00     0.053 C 
BRANCH  21  22
HETATM   22  C   UNL     1      33.344  10.374  -9.240  1.00  0.00    -0.027 C 
HETATM   23  C   UNL     1      34.515  10.601  -9.867  1.00  0.00    -0.031 C 
BRANCH  23  24
HETATM   24  C   UNL     1      35.270   9.629 -10.737  1.00  0.00     0.022 C 
HETATM   25  C   UNL     1      35.112   9.932 -12.221  1.00  0.00     0.009 C 
ENDBRANCH  23  24
ENDBRANCH  21  22
ENDBRANCH  20  21
ENDBRANCH  18  19
ENDBRANCH  17  18
ENDBRANCH  15  16
ENDBRANCH  14  15
ENDBRANCH  12  13
ENDBRANCH  11  12
ENDBRANCH   9  10
ENDBRANCH   8   9
ENDBRANCH   6   7
ENDBRANCH   5   6
ENDBRANCH   3   5
ENDBRANCH   1   3
TORSDOF 15
ENDMDL
MODEL 9
REMARK VINA RESULT:      -4.5      4.439      8.886
REMARK  15 active torsions:
REMARK  status: ('A' for Active; 'I' for Inactive)
REMARK    1  A    between atoms: O_1  and  C_23 
REMARK    2  A    between atoms: C_3  and  C_7 
REMARK    3  A    between atoms: C_3  and  C_8 
REMARK    4  A    between atoms: C_4  and  C_10 
REMARK    5  A    between atoms: C_4  and  C_11 
REMARK    6  A    between atoms: C_5  and  C_12 
REMARK    7  A    between atoms: C_5  and  C_13 
REMARK    8  A    between atoms: C_6  and  C_15 
REMARK    9  A    between atoms: C_6  and  C_16 
REMARK   10  A    between atoms: C_7  and  C_23 
REMARK   11  A    between atoms: C_9  and  C_17 
REMARK   12  A    between atoms: C_9  and  C_18 
REMARK   13  A    between atoms: C_14  and  C_19 
REMARK   14  A    between atoms: C_14  and  C_20 
REMARK   15  A    between atoms: C_21  and  C_22 
ROOT
HETATM    1  O   UNL     1      30.772   5.667 -22.369  1.00  0.00    -0.776 OA
HETATM    2  H   UNL     1      30.437   6.434 -21.883  1.00  0.00     0.167 HD
ENDROOT
BRANCH   1   3
HETATM    3  C   UNL     1      32.050   5.253 -22.235  1.00  0.00     0.139 C 
HETATM    4  O   UNL     1      32.736   5.053 -23.228  1.00  0.00    -0.650 OA
BRANCH   3   5
HETATM    5  C   UNL     1      32.627   5.043 -20.865  1.00  0.00     0.113 C 
BRANCH   5   6
HETATM    6  C   UNL     1      31.568   5.284 -19.782  1.00  0.00     0.037 C 
BRANCH   6   7
HETATM    7  C   UNL     1      31.886   6.534 -18.997  1.00  0.00    -0.030 C 
HETATM    8  C   UNL     1      31.396   6.879 -17.787  1.00  0.00    -0.027 C 
BRANCH   8   9
HETATM    9  C   UNL     1      30.418   6.102 -16.933  1.00  0.00     0.053 C 
BRANCH   9  10
HETATM   10  C   UNL     1      31.146   5.182 -15.985  1.00  0.00    -0.027 C 
HETATM   11  C   UNL     1      31.654   5.530 -14.789  1.00  0.00    -0.027 C 
BRANCH  11  12
HETATM   12  C   UNL     1      31.538   6.890 -14.152  1.00  0.00     0.053 C 
BRANCH  12  13
HETATM   13  C   UNL     1      32.512   7.034 -13.009  1.00  0.00    -0.027 C 
HETATM   14  C   UNL     1      32.230   6.935 -11.696  1.00  0.00    -0.027 C 
BRANCH  14  15
HETATM   15  C   UNL     1      30.868   6.709 -11.096  1.00  0.00     0.053 C 
BRANCH  15  16
HETATM   16  C   UNL     1      30.937   5.501 -10.188  1.00  0.00    -0.027 C 
HETATM   17  C   UNL     1      31.008   5.480  -8.842  1.00  0.00    -0.027 C 
BRANCH  17  18
HETATM   18  C   UNL     1      31.017   6.665  -7.912  1.00  0.00     0.053 C 
BRANCH  18  19
HETATM   19  C   UNL     1      32.267   6.668  -7.063  1.00  0.00    -0.027 C 
HETATM   20  C   UNL     1      33.471   7.188  -7.377  1.00  0.00    -0.027 C 
BRANCH  20  21
HETATM   21  C   UNL     1      33.838   7.941  -8.632  1.00  0.00     0.053 C 
BRANCH  21  22
HETATM   22  C   UNL     1      34.029   9.411  -8.342  1.00  0.00    -0.027 C 
HETATM   23  C   UNL     1      33.074  10.359  -8.275  1.00  0.00    -0.031 C 
BRANCH  23  24
HETATM   24  C   UNL     1      31.597  10.163  -8.497  1.00  0.00     0.022 C 
HETATM   25  C   UNL     1      31.221  10.184  -9.973  1.00  0.00     0.009 C 
ENDBRANCH  23  24
ENDBRANCH  21  22
ENDBRANCH  20  21
ENDBRANCH  18  19
ENDBRANCH  17  18
ENDBRANCH  15  16
ENDBRANCH  14  15
ENDBRANCH  12  13
ENDBRANCH  11  12
ENDBRANCH   9  10
ENDBRANCH   8   9
ENDBRANCH   6   7
ENDBRANCH   5   6
ENDBRANCH   3   5
ENDBRANCH   1   3
TORSDOF 15
ENDMDL
MODEL 10
REMARK VINA RESULT:      -4.4      2.180      3.624
REMARK  15 active torsions:
REMARK  status: ('A' for Active; 'I' for Inactive)
REMARK    1  A    between atoms: O_1  and  C_23 
REMARK    2  A    between atoms: C_3  and  C_7 
REMARK    3  A    between atoms: C_3  and  C_8 
REMARK    4  A    between atoms: C_4  and  C_10 
REMARK    5  A    between atoms: C_4  and  C_11 
REMARK    6  A    between atoms: C_5  and  C_12 
REMARK    7  A    between atoms: C_5  and  C_13 
REMARK    8  A    between atoms: C_6  and  C_15 
REMARK    9  A    between atoms: C_6  and  C_16 
REMARK   10  A    between atoms: C_7  and  C_23 
REMARK   11  A    between atoms: C_9  and  C_17 
REMARK   12  A    between atoms: C_9  and  C_18 
REMARK   13  A    between atoms: C_14  and  C_19 
REMARK   14  A    between atoms: C_14  and  C_20 
REMARK   15  A    between atoms: C_21  and  C_22 
ROOT
HETATM    1  O   UNL     1      28.879  12.206 -13.706  1.00  0.00    -0.776 OA
HETATM    2  H   UNL     1      28.565  12.476 -12.832  1.00  0.00     0.167 HD
ENDROOT
BRANCH   1   3
HETATM    3  C   UNL     1      28.904  10.907 -14.074  1.00  0.00     0.139 C 
HETATM    4  O   UNL     1      27.903  10.385 -14.544  1.00  0.00    -0.650 OA
BRANCH   3   5
HETATM    5  C   UNL     1      30.165  10.108 -13.908  1.00  0.00     0.113 C 
BRANCH   5   6
HETATM    6  C   UNL     1      30.001   8.699 -14.489  1.00  0.00     0.037 C 
BRANCH   6   7
HETATM    7  C   UNL     1      31.131   7.804 -14.040  1.00  0.00    -0.030 C 
HETATM    8  C   UNL     1      31.247   7.176 -12.851  1.00  0.00    -0.027 C 
BRANCH   8   9
HETATM    9  C   UNL     1      30.279   7.219 -11.688  1.00  0.00     0.053 C 
BRANCH   9  10
HETATM   10  C   UNL     1      31.012   7.115 -10.375  1.00  0.00    -0.027 C 
HETATM   11  C   UNL     1      31.326   8.143  -9.567  1.00  0.00    -0.027 C 
BRANCH  11  12
HETATM   12  C   UNL     1      30.951   9.584  -9.799  1.00  0.00     0.053 C 
BRANCH  12  13
HETATM   13  C   UNL     1      32.136  10.491  -9.577  1.00  0.00    -0.027 C 
HETATM   14  C   UNL     1      33.024  10.894 -10.506  1.00  0.00    -0.027 C 
BRANCH  14  15
HETATM   15  C   UNL     1      33.044  10.479 -11.953  1.00  0.00     0.053 C 
BRANCH  15  16
HETATM   16  C   UNL     1      34.160   9.479 -12.151  1.00  0.00    -0.027 C 
HETATM   17  C   UNL     1      34.577   8.919 -13.306  1.00  0.00    -0.027 C 
BRANCH  17  18
HETATM   18  C   UNL     1      34.035   9.175 -14.687  1.00  0.00     0.053 C 
BRANCH  18  19
HETATM   19  C   UNL     1      34.785   8.359 -15.714  1.00  0.00    -0.027 C 
HETATM   20  C   UNL     1      34.675   7.036 -15.951  1.00  0.00    -0.027 C 
BRANCH  20  21
HETATM   21  C   UNL     1      33.733   6.067 -15.280  1.00  0.00     0.053 C 
BRANCH  21  22
HETATM   22  C   UNL     1      33.181   5.076 -16.278  1.00  0.00    -0.027 C 
HETATM   23  C   UNL     1      32.204   5.288 -17.182  1.00  0.00    -0.031 C 
BRANCH  23  24
HETATM   24  C   UNL     1      31.430   6.565 -17.384  1.00  0.00     0.022 C 
HETATM   25  C   UNL     1      31.221   6.893 -18.856  1.00  0.00     0.009 C 
ENDBRANCH  23  24
ENDBRANCH  21  22
ENDBRANCH  20  21
ENDBRANCH  18  19
ENDBRANCH  17  18
ENDBRANCH  15  16
ENDBRANCH  14  15
ENDBRANCH  12  13
ENDBRANCH  11  12
ENDBRANCH   9  10
ENDBRANCH   8   9
ENDBRANCH   6   7
ENDBRANCH   5   6
ENDBRANCH   3   5
ENDBRANCH   1   3
TORSDOF 15
ENDMDL
MODEL 11
REMARK VINA RESULT:      -4.4     45.242     48.321
REMARK  15 active torsions:
REMARK  status: ('A' for Active; 'I' for Inactive)
REMARK    1  A    between atoms: O_1  and  C_23 
REMARK    2  A    between atoms: C_3  and  C_7 
REMARK    3  A    between atoms: C_3  and  C_8 
REMARK    4  A    between atoms: C_4  and  C_10 
REMARK    5  A    between atoms: C_4  and  C_11 
REMARK    6  A    between atoms: C_5  and  C_12 
REMARK    7  A    between atoms: C_5  and  C_13 
REMARK    8  A    between atoms: C_6  and  C_15 
REMARK    9  A    between atoms: C_6  and  C_16 
REMARK   10  A    between atoms: C_7  and  C_23 
REMARK   11  A    between atoms: C_9  and  C_17 
REMARK   12  A    between atoms: C_9  and  C_18 
REMARK   13  A    between atoms: C_14  and  C_19 
REMARK   14  A    between atoms: C_14  and  C_20 
REMARK   15  A    between atoms: C_21  and  C_22 
ROOT
HETATM    1  O   UNL     1     -18.711   9.479 -13.349  1.00  0.00    -0.776 OA
HETATM    2  H   UNL     1     -19.325   8.848 -12.948  1.00  0.00     0.167 HD
ENDROOT
BRANCH   1   3
HETATM    3  C   UNL     1     -18.814  10.805 -13.119  1.00  0.00     0.139 C 
HETATM    4  O   UNL     1     -18.431  11.273 -12.056  1.00  0.00    -0.650 OA
BRANCH   3   5
HETATM    5  C   UNL     1     -19.397  11.702 -14.173  1.00  0.00     0.113 C 
BRANCH   5   6
HETATM    6  C   UNL     1     -18.344  12.683 -14.701  1.00  0.00     0.037 C 
BRANCH   6   7
HETATM    7  C   UNL     1     -17.192  11.937 -15.332  1.00  0.00    -0.030 C 
HETATM    8  C   UNL     1     -17.196  11.290 -16.517  1.00  0.00    -0.027 C 
BRANCH   8   9
HETATM    9  C   UNL     1     -18.347  11.157 -17.491  1.00  0.00     0.053 C 
BRANCH   9  10
HETATM   10  C   UNL     1     -18.318  12.267 -18.512  1.00  0.00    -0.027 C 
HETATM   11  C   UNL     1     -17.562  12.291 -19.624  1.00  0.00    -0.027 C 
BRANCH  11  12
HETATM   12  C   UNL     1     -16.647  11.186 -20.083  1.00  0.00     0.053 C 
BRANCH  12  13
HETATM   13  C   UNL     1     -15.266  11.717 -20.375  1.00  0.00    -0.027 C 
HETATM   14  C   UNL     1     -14.122  11.359 -19.762  1.00  0.00    -0.027 C 
BRANCH  14  15
HETATM   15  C   UNL     1     -13.995  10.388 -18.619  1.00  0.00     0.053 C 
BRANCH  15  16
HETATM   16  C   UNL     1     -12.677  10.639 -17.919  1.00  0.00    -0.027 C 
HETATM   17  C   UNL     1     -12.478  11.086 -16.663  1.00  0.00    -0.027 C 
BRANCH  17  18
HETATM   18  C   UNL     1     -13.531  11.428 -15.642  1.00  0.00     0.053 C 
BRANCH  18  19
HETATM   19  C   UNL     1     -13.107  10.971 -14.266  1.00  0.00    -0.027 C 
HETATM   20  C   UNL     1     -13.186   9.725 -13.754  1.00  0.00    -0.027 C 
BRANCH  20  21
HETATM   21  C   UNL     1     -13.666   8.481 -14.460  1.00  0.00     0.053 C 
BRANCH  21  22
HETATM   22  C   UNL     1     -15.174   8.397 -14.436  1.00  0.00    -0.027 C 
HETATM   23  C   UNL     1     -15.989   8.087 -15.463  1.00  0.00    -0.031 C 
BRANCH  23  24
HETATM   24  C   UNL     1     -15.573   7.771 -16.876  1.00  0.00     0.022 C 
HETATM   25  C   UNL     1     -16.758   7.688 -17.828  1.00  0.00     0.009 C 
ENDBRANCH  23  24
ENDBRANCH  21  22
ENDBRANCH  20  21
ENDBRANCH  18  19
ENDBRANCH  17  18
ENDBRANCH  15  16
ENDBRANCH  14  15
ENDBRANCH  12  13
ENDBRANCH  11  12
ENDBRANCH   9  10
ENDBRANCH   8   9
ENDBRANCH   6   7
ENDBRANCH   5   6
ENDBRANCH   3   5
ENDBRANCH   1   3
TORSDOF 15
ENDMDL
MODEL 12
REMARK VINA RESULT:      -4.4     47.884     50.750
REMARK  15 active torsions:
REMARK  status: ('A' for Active; 'I' for Inactive)
REMARK    1  A    between atoms: O_1  and  C_23 
REMARK    2  A    between atoms: C_3  and  C_7 
REMARK    3  A    between atoms: C_3  and  C_8 
REMARK    4  A    between atoms: C_4  and  C_10 
REMARK    5  A    between atoms: C_4  and  C_11 
REMARK    6  A    between atoms: C_5  and  C_12 
REMARK    7  A    between atoms: C_5  and  C_13 
REMARK    8  A    between atoms: C_6  and  C_15 
REMARK    9  A    between atoms: C_6  and  C_16 
REMARK   10  A    between atoms: C_7  and  C_23 
REMARK   11  A    between atoms: C_9  and  C_17 
REMARK   12  A    between atoms: C_9  and  C_18 
REMARK   13  A    between atoms: C_14  and  C_19 
REMARK   14  A    between atoms: C_14  and  C_20 
REMARK   15  A    between atoms: C_21  and  C_22 
ROOT
HETATM    1  O   UNL     1     -19.140   6.523 -12.343  1.00  0.00    -0.776 OA
HETATM    2  H   UNL     1     -18.557   6.172 -11.656  1.00  0.00     0.167 HD
ENDROOT
BRANCH   1   3
HETATM    3  C   UNL     1     -18.663   7.287 -13.349  1.00  0.00     0.139 C 
HETATM    4  O   UNL     1     -17.911   6.803 -14.182  1.00  0.00    -0.650 OA
BRANCH   3   5
HETATM    5  C   UNL     1     -19.063   8.732 -13.442  1.00  0.00     0.113 C 
BRANCH   5   6
HETATM    6  C   UNL     1     -18.614   9.505 -12.197  1.00  0.00     0.037 C 
BRANCH   6   7
HETATM    7  C   UNL     1     -17.108   9.602 -12.144  1.00  0.00    -0.030 C 
HETATM    8  C   UNL     1     -16.328  10.495 -12.790  1.00  0.00    -0.027 C 
BRANCH   8   9
HETATM    9  C   UNL     1     -16.773  11.607 -13.716  1.00  0.00     0.053 C 
BRANCH   9  10
HETATM   10  C   UNL     1     -15.816  11.760 -14.871  1.00  0.00    -0.027 C 
HETATM   11  C   UNL     1     -15.994  11.267 -16.109  1.00  0.00    -0.027 C 
BRANCH  11  12
HETATM   12  C   UNL     1     -17.212  10.520 -16.586  1.00  0.00     0.053 C 
BRANCH  12  13
HETATM   13  C   UNL     1     -18.085  11.404 -17.442  1.00  0.00    -0.027 C 
HETATM   14  C   UNL     1     -19.225  12.012 -17.066  1.00  0.00    -0.027 C 
BRANCH  14  15
HETATM   15  C   UNL     1     -19.892  11.894 -15.721  1.00  0.00     0.053 C 
BRANCH  15  16
HETATM   16  C   UNL     1     -19.836  13.242 -15.037  1.00  0.00    -0.027 C 
HETATM   17  C   UNL     1     -19.975  13.511 -13.723  1.00  0.00    -0.027 C 
BRANCH  17  18
HETATM   18  C   UNL     1     -20.201  12.520 -12.611  1.00  0.00     0.053 C 
BRANCH  18  19
HETATM   19  C   UNL     1     -20.427  13.234 -11.299  1.00  0.00    -0.027 C 
HETATM   20  C   UNL     1     -19.584  13.309 -10.248  1.00  0.00    -0.027 C 
BRANCH  20  21
HETATM   21  C   UNL     1     -18.190  12.740 -10.159  1.00  0.00     0.053 C 
BRANCH  21  22
HETATM   22  C   UNL     1     -18.027  11.908  -8.909  1.00  0.00    -0.027 C 
HETATM   23  C   UNL     1     -16.907  11.297  -8.476  1.00  0.00    -0.031 C 
BRANCH  23  24
HETATM   24  C   UNL     1     -15.565  11.294  -9.161  1.00  0.00     0.022 C 
HETATM   25  C   UNL     1     -14.899   9.924  -9.133  1.00  0.00     0.009 C 
ENDBRANCH  23  24
ENDBRANCH  21  22
ENDBRANCH  20  21
ENDBRANCH  18  19
ENDBRANCH  17  18
ENDBRANCH  15  16
ENDBRANCH  14  15
ENDBRANCH  12  13
ENDBRANCH  11  12
ENDBRANCH   9  10
ENDBRANCH   8   9
ENDBRANCH   6   7
ENDBRANCH   5   6
ENDBRANCH   3   5
ENDBRANCH   1   3
TORSDOF 15
ENDMDL
MODEL 13
REMARK VINA RESULT:      -4.4      2.334      4.555
REMARK  15 active torsions:
REMARK  status: ('A' for Active; 'I' for Inactive)
REMARK    1  A    between atoms: O_1  and  C_23 
REMARK    2  A    between atoms: C_3  and  C_7 
REMARK    3  A    between atoms: C_3  and  C_8 
REMARK    4  A    between atoms: C_4  and  C_10 
REMARK    5  A    between atoms: C_4  and  C_11 
REMARK    6  A    between atoms: C_5  and  C_12 
REMARK    7  A    between atoms: C_5  and  C_13 
REMARK    8  A    between atoms: C_6  and  C_15 
REMARK    9  A    between atoms: C_6  and  C_16 
REMARK   10  A    between atoms: C_7  and  C_23 
REMARK   11  A    between atoms: C_9  and  C_17 
REMARK   12  A    between atoms: C_9  and  C_18 
REMARK   13  A    between atoms: C_14  and  C_19 
REMARK   14  A    between atoms: C_14  and  C_20 
REMARK   15  A    between atoms: C_21  and  C_22 
ROOT
HETATM    1  O   UNL     1      30.133   7.075 -16.388  1.00  0.00    -0.776 OA
HETATM    2  H   UNL     1      30.496   7.776 -15.829  1.00  0.00     0.167 HD
ENDROOT
BRANCH   1   3
HETATM    3  C   UNL     1      30.477   5.782 -16.207  1.00  0.00     0.139 C 
HETATM    4  O   UNL     1      29.785   4.892 -16.680  1.00  0.00    -0.650 OA
BRANCH   3   5
HETATM    5  C   UNL     1      31.715   5.442 -15.427  1.00  0.00     0.113 C 
BRANCH   5   6
HETATM    6  C   UNL     1      32.915   6.256 -15.922  1.00  0.00     0.037 C 
BRANCH   6   7
HETATM    7  C   UNL     1      33.630   6.910 -14.764  1.00  0.00    -0.030 C 
HETATM    8  C   UNL     1      33.379   8.128 -14.238  1.00  0.00    -0.027 C 
BRANCH   8   9
HETATM    9  C   UNL     1      32.329   9.124 -14.680  1.00  0.00     0.053 C 
BRANCH   9  10
HETATM   10  C   UNL     1      32.653  10.506 -14.173  1.00  0.00    -0.027 C 
HETATM   11  C   UNL     1      32.644  11.634 -14.906  1.00  0.00    -0.027 C 
BRANCH  11  12
HETATM   12  C   UNL     1      32.251  11.731 -16.357  1.00  0.00     0.053 C 
BRANCH  12  13
HETATM   13  C   UNL     1      33.468  11.695 -17.248  1.00  0.00    -0.027 C 
HETATM   14  C   UNL     1      33.821  10.702 -18.086  1.00  0.00    -0.027 C 
BRANCH  14  15
HETATM   15  C   UNL     1      33.095   9.396 -18.269  1.00  0.00     0.053 C 
BRANCH  15  16
HETATM   16  C   UNL     1      34.081   8.364 -18.769  1.00  0.00    -0.027 C 
HETATM   17  C   UNL     1      34.507   8.169 -20.033  1.00  0.00    -0.027 C 
BRANCH  17  18
HETATM   18  C   UNL     1      34.114   8.953 -21.257  1.00  0.00     0.053 C 
BRANCH  18  19
HETATM   19  C   UNL     1      33.983   8.042 -22.455  1.00  0.00    -0.027 C 
HETATM   20  C   UNL     1      32.848   7.551 -22.993  1.00  0.00    -0.027 C 
BRANCH  20  21
HETATM   21  C   UNL     1      31.434   7.842 -22.556  1.00  0.00     0.053 C 
BRANCH  21  22
HETATM   22  C   UNL     1      30.672   6.561 -22.312  1.00  0.00    -0.027 C 
HETATM   23  C   UNL     1      30.563   5.885 -21.152  1.00  0.00    -0.031 C 
BRANCH  23  24
HETATM   24  C   UNL     1      31.200   6.253 -19.837  1.00  0.00     0.022 C 
HETATM   25  C   UNL     1      32.286   5.270 -19.419  1.00  0.00     0.009 C 
ENDBRANCH  23  24
ENDBRANCH  21  22
ENDBRANCH  20  21
ENDBRANCH  18  19
ENDBRANCH  17  18
ENDBRANCH  15  16
ENDBRANCH  14  15
ENDBRANCH  12  13
ENDBRANCH  11  12
ENDBRANCH   9  10
ENDBRANCH   8   9
ENDBRANCH   6   7
ENDBRANCH   5   6
ENDBRANCH   3   5
ENDBRANCH   1   3
TORSDOF 15
ENDMDL
MODEL 14
REMARK VINA RESULT:      -4.3     45.912     49.150
REMARK  15 active torsions:
REMARK  status: ('A' for Active; 'I' for Inactive)
REMARK    1  A    between atoms: O_1  and  C_23 
REMARK    2  A    between atoms: C_3  and  C_7 
REMARK    3  A    between atoms: C_3  and  C_8 
REMARK    4  A    between atoms: C_4  and  C_10 
REMARK    5  A    between atoms: C_4  and  C_11 
REMARK    6  A    between atoms: C_5  and  C_12 
REMARK    7  A    between atoms: C_5  and  C_13 
REMARK    8  A    between atoms: C_6  and  C_15 
REMARK    9  A    between atoms: C_6  and  C_16 
REMARK   10  A    between atoms: C_7  and  C_23 
REMARK   11  A    between atoms: C_9  and  C_17 
REMARK   12  A    between atoms: C_9  and  C_18 
REMARK   13  A    between atoms: C_14  and  C_19 
REMARK   14  A    between atoms: C_14  and  C_20 
REMARK   15  A    between atoms: C_21  and  C_22 
ROOT
HETATM    1  O   UNL     1     -20.729  14.019 -18.141  1.00  0.00    -0.776 OA
HETATM    2  H   UNL     1     -20.509  14.931 -18.377  1.00  0.00     0.167 HD
ENDROOT
BRANCH   1   3
HETATM    3  C   UNL     1     -19.849  13.012 -18.327  1.00  0.00     0.139 C 
HETATM    4  O   UNL     1     -19.300  12.870 -19.411  1.00  0.00    -0.650 OA
BRANCH   3   5
HETATM    5  C   UNL     1     -19.544  12.070 -17.198  1.00  0.00     0.113 C 
BRANCH   5   6
HETATM    6  C   UNL     1     -19.535  12.810 -15.855  1.00  0.00     0.037 C 
BRANCH   6   7
HETATM    7  C   UNL     1     -18.226  12.592 -15.135  1.00  0.00    -0.030 C 
HETATM    8  C   UNL     1     -18.052  12.043 -13.914  1.00  0.00    -0.027 C 
BRANCH   8   9
HETATM    9  C   UNL     1     -19.120  11.518 -12.979  1.00  0.00     0.053 C 
BRANCH   9  10
HETATM   10  C   UNL     1     -19.434  12.526 -11.903  1.00  0.00    -0.027 C 
HETATM   11  C   UNL     1     -18.980  12.490 -10.637  1.00  0.00    -0.027 C 
BRANCH  11  12
HETATM   12  C   UNL     1     -18.028  11.465 -10.078  1.00  0.00     0.053 C 
BRANCH  12  13
HETATM   13  C   UNL     1     -16.689  12.087  -9.769  1.00  0.00    -0.027 C 
HETATM   14  C   UNL     1     -15.482  11.621 -10.141  1.00  0.00    -0.027 C 
BRANCH  14  15
HETATM   15  C   UNL     1     -15.219  10.350 -10.905  1.00  0.00     0.053 C 
BRANCH  15  16
HETATM   16  C   UNL     1     -13.741  10.040 -10.827  1.00  0.00    -0.027 C 
HETATM   17  C   UNL     1     -12.782  10.342 -11.725  1.00  0.00    -0.027 C 
BRANCH  17  18
HETATM   18  C   UNL     1     -12.954  11.086 -13.023  1.00  0.00     0.053 C 
BRANCH  18  19
HETATM   19  C   UNL     1     -12.919  10.131 -14.194  1.00  0.00    -0.027 C 
HETATM   20  C   UNL     1     -13.970   9.586 -14.840  1.00  0.00    -0.027 C 
BRANCH  20  21
HETATM   21  C   UNL     1     -15.433   9.846 -14.579  1.00  0.00     0.053 C 
BRANCH  21  22
HETATM   22  C   UNL     1     -16.290   9.234 -15.663  1.00  0.00    -0.027 C 
HETATM   23  C   UNL     1     -16.530   9.733 -16.891  1.00  0.00    -0.031 C 
BRANCH  23  24
HETATM   24  C   UNL     1     -16.007  11.031 -17.451  1.00  0.00     0.022 C 
HETATM   25  C   UNL     1     -15.085  10.822 -18.645  1.00  0.00     0.009 C 
ENDBRANCH  23  24
ENDBRANCH  21  22
ENDBRANCH  20  21
ENDBRANCH  18  19
ENDBRANCH  17  18
ENDBRANCH  15  16
ENDBRANCH  14  15
ENDBRANCH  12  13
ENDBRANCH  11  12
ENDBRANCH   9  10
ENDBRANCH   8   9
ENDBRANCH   6   7
ENDBRANCH   5   6
ENDBRANCH   3   5
ENDBRANCH   1   3
TORSDOF 15
ENDMDL
MODEL 15
REMARK VINA RESULT:      -4.3     46.123     49.291
REMARK  15 active torsions:
REMARK  status: ('A' for Active; 'I' for Inactive)
REMARK    1  A    between atoms: O_1  and  C_23 
REMARK    2  A    between atoms: C_3  and  C_7 
REMARK    3  A    between atoms: C_3  and  C_8 
REMARK    4  A    between atoms: C_4  and  C_10 
REMARK    5  A    between atoms: C_4  and  C_11 
REMARK    6  A    between atoms: C_5  and  C_12 
REMARK    7  A    between atoms: C_5  and  C_13 
REMARK    8  A    between atoms: C_6  and  C_15 
REMARK    9  A    between atoms: C_6  and  C_16 
REMARK   10  A    between atoms: C_7  and  C_23 
REMARK   11  A    between atoms: C_9  and  C_17 
REMARK   12  A    between atoms: C_9  and  C_18 
REMARK   13  A    between atoms: C_14  and  C_19 
REMARK   14  A    between atoms: C_14  and  C_20 
REMARK   15  A    between atoms: C_21  and  C_22 
ROOT
HETATM    1  O   UNL     1     -20.689  10.399 -11.084  1.00  0.00    -0.776 OA
HETATM    2  H   UNL     1     -20.087  10.012 -11.735  1.00  0.00     0.167 HD
ENDROOT
BRANCH   1   3
HETATM    3  C   UNL     1     -20.237  10.881  -9.906  1.00  0.00     0.139 C 
HETATM    4  O   UNL     1     -20.393  10.235  -8.880  1.00  0.00    -0.650 OA
BRANCH   3   5
HETATM    5  C   UNL     1     -19.539  12.211  -9.863  1.00  0.00     0.113 C 
BRANCH   5   6
HETATM    6  C   UNL     1     -18.229  12.167 -10.656  1.00  0.00     0.037 C 
BRANCH   6   7
HETATM    7  C   UNL     1     -17.042  12.144  -9.723  1.00  0.00    -0.030 C 
HETATM    8  C   UNL     1     -15.808  11.667  -9.990  1.00  0.00    -0.027 C 
BRANCH   8   9
HETATM    9  C   UNL     1     -15.320  11.045 -11.281  1.00  0.00     0.053 C 
BRANCH   9  10
HETATM   10  C   UNL     1     -13.813  11.018 -11.328  1.00  0.00    -0.027 C 
HETATM   11  C   UNL     1     -13.066  10.631 -12.378  1.00  0.00    -0.027 C 
BRANCH  11  12
HETATM   12  C   UNL     1     -13.601  10.208 -13.721  1.00  0.00     0.053 C 
BRANCH  12  13
HETATM   13  C   UNL     1     -13.418  11.304 -14.742  1.00  0.00    -0.027 C 
HETATM   14  C   UNL     1     -14.346  11.761 -15.604  1.00  0.00    -0.027 C 
BRANCH  14  15
HETATM   15  C   UNL     1     -15.748  11.236 -15.758  1.00  0.00     0.053 C 
BRANCH  15  16
HETATM   16  C   UNL     1     -16.479  11.424 -14.448  1.00  0.00    -0.027 C 
HETATM   17  C   UNL     1     -17.605  12.130 -14.220  1.00  0.00    -0.027 C 
BRANCH  17  18
HETATM   18  C   UNL     1     -18.421  12.891 -15.232  1.00  0.00     0.053 C 
BRANCH  18  19
HETATM   19  C   UNL     1     -19.458  11.993 -15.865  1.00  0.00    -0.027 C 
HETATM   20  C   UNL     1     -19.506  11.569 -17.145  1.00  0.00    -0.027 C 
BRANCH  20  21
HETATM   21  C   UNL     1     -18.500  11.848 -18.234  1.00  0.00     0.053 C 
BRANCH  21  22
HETATM   22  C   UNL     1     -17.824  10.573 -18.682  1.00  0.00    -0.027 C 
HETATM   23  C   UNL     1     -16.851  10.448 -19.606  1.00  0.00    -0.031 C 
BRANCH  23  24
HETATM   24  C   UNL     1     -16.233  11.558 -20.415  1.00  0.00     0.022 C 
HETATM   25  C   UNL     1     -14.775  11.805 -20.048  1.00  0.00     0.009 C 
ENDBRANCH  23  24
ENDBRANCH  21  22
ENDBRANCH  20  21
ENDBRANCH  18  19
ENDBRANCH  17  18
ENDBRANCH  15  16
ENDBRANCH  14  15
ENDBRANCH  12  13
ENDBRANCH  11  12
ENDBRANCH   9  10
ENDBRANCH   8   9
ENDBRANCH   6   7
ENDBRANCH   5   6
ENDBRANCH   3   5
ENDBRANCH   1   3
TORSDOF 15
ENDMDL
MODEL 16
REMARK VINA RESULT:      -4.3     46.334     49.639
REMARK  15 active torsions:
REMARK  status: ('A' for Active; 'I' for Inactive)
REMARK    1  A    between atoms: O_1  and  C_23 
REMARK    2  A    between atoms: C_3  and  C_7 
REMARK    3  A    between atoms: C_3  and  C_8 
REMARK    4  A    between atoms: C_4  and  C_10 
REMARK    5  A    between atoms: C_4  and  C_11 
REMARK    6  A    between atoms: C_5  and  C_12 
REMARK    7  A    between atoms: C_5  and  C_13 
REMARK    8  A    between atoms: C_6  and  C_15 
REMARK    9  A    between atoms: C_6  and  C_16 
REMARK   10  A    between atoms: C_7  and  C_23 
REMARK   11  A    between atoms: C_9  and  C_17 
REMARK   12  A    between atoms: C_9  and  C_18 
REMARK   13  A    between atoms: C_14  and  C_19 
REMARK   14  A    between atoms: C_14  and  C_20 
REMARK   15  A    between atoms: C_21  and  C_22 
ROOT
HETATM    1  O   UNL     1     -19.090  12.378 -17.859  1.00  0.00    -0.776 OA
HETATM    2  H   UNL     1     -18.195  12.719 -17.991  1.00  0.00     0.167 HD
ENDROOT
BRANCH   1   3
HETATM    3  C   UNL     1     -20.156  13.205 -17.797  1.00  0.00     0.139 C 
HETATM    4  O   UNL     1     -20.473  13.869 -18.773  1.00  0.00    -0.650 OA
BRANCH   3   5
HETATM    5  C   UNL     1     -20.951  13.303 -16.526  1.00  0.00     0.113 C 
BRANCH   5   6
HETATM    6  C   UNL     1     -20.049  13.123 -15.300  1.00  0.00     0.037 C 
BRANCH   6   7
HETATM    7  C   UNL     1     -20.719  12.245 -14.270  1.00  0.00    -0.030 C 
HETATM    8  C   UNL     1     -20.277  11.973 -13.024  1.00  0.00    -0.027 C 
BRANCH   8   9
HETATM    9  C   UNL     1     -19.011  12.478 -12.364  1.00  0.00     0.053 C 
BRANCH   9  10
HETATM   10  C   UNL     1     -19.211  12.645 -10.879  1.00  0.00    -0.027 C 
HETATM   11  C   UNL     1     -18.267  12.474  -9.936  1.00  0.00    -0.027 C 
BRANCH  11  12
HETATM   12  C   UNL     1     -16.822  12.139 -10.196  1.00  0.00     0.053 C 
BRANCH  12  13
HETATM   13  C   UNL     1     -16.233  11.364  -9.043  1.00  0.00    -0.027 C 
HETATM   14  C   UNL     1     -14.948  10.990  -8.901  1.00  0.00    -0.027 C 
BRANCH  14  15
HETATM   15  C   UNL     1     -13.839  11.228  -9.892  1.00  0.00     0.053 C 
BRANCH  15  16
HETATM   16  C   UNL     1     -13.045   9.949 -10.041  1.00  0.00    -0.027 C 
HETATM   17  C   UNL     1     -13.190   8.988 -10.975  1.00  0.00    -0.027 C 
BRANCH  17  18
HETATM   18  C   UNL     1     -14.174   8.968 -12.114  1.00  0.00     0.053 C 
BRANCH  18  19
HETATM   19  C   UNL     1     -13.685   9.828 -13.256  1.00  0.00    -0.027 C 
HETATM   20  C   UNL     1     -14.353  10.819 -13.882  1.00  0.00    -0.027 C 
BRANCH  20  21
HETATM   21  C   UNL     1     -15.730  11.339 -13.551  1.00  0.00     0.053 C 
BRANCH  21  22
HETATM   22  C   UNL     1     -16.461  11.761 -14.804  1.00  0.00    -0.027 C 
HETATM   23  C   UNL     1     -17.157  10.974 -15.647  1.00  0.00    -0.031 C 
BRANCH  23  24
HETATM   24  C   UNL     1     -17.343   9.483 -15.534  1.00  0.00     0.022 C 
HETATM   25  C   UNL     1     -18.522   9.108 -14.645  1.00  0.00     0.009 C 
ENDBRANCH  23  24
ENDBRANCH  21  22
ENDBRANCH  20  21
ENDBRANCH  18  19
ENDBRANCH  17  18
ENDBRANCH  15  16
ENDBRANCH  14  15
ENDBRANCH  12  13
ENDBRANCH  11  12
ENDBRANCH   9  10
ENDBRANCH   8   9
ENDBRANCH   6   7
ENDBRANCH   5   6
ENDBRANCH   3   5
ENDBRANCH   1   3
TORSDOF 15
ENDMDL
MODEL 17
REMARK VINA RESULT:      -4.2      3.443      5.937
REMARK  15 active torsions:
REMARK  status: ('A' for Active; 'I' for Inactive)
REMARK    1  A    between atoms: O_1  and  C_23 
REMARK    2  A    between atoms: C_3  and  C_7 
REMARK    3  A    between atoms: C_3  and  C_8 
REMARK    4  A    between atoms: C_4  and  C_10 
REMARK    5  A    between atoms: C_4  and  C_11 
REMARK    6  A    between atoms: C_5  and  C_12 
REMARK    7  A    between atoms: C_5  and  C_13 
REMARK    8  A    between atoms: C_6  and  C_15 
REMARK    9  A    between atoms: C_6  and  C_16 
REMARK   10  A    between atoms: C_7  and  C_23 
REMARK   11  A    between atoms: C_9  and  C_17 
REMARK   12  A    between atoms: C_9  and  C_18 
REMARK   13  A    between atoms: C_14  and  C_19 
REMARK   14  A    between atoms: C_14  and  C_20 
REMARK   15  A    between atoms: C_21  and  C_22 
ROOT
HETATM    1  O   UNL     1      38.166  10.652 -16.395  1.00  0.00    -0.776 OA
HETATM    2  H   UNL     1      38.312   9.935 -17.028  1.00  0.00     0.167 HD
ENDROOT
BRANCH   1   3
HETATM    3  C   UNL     1      36.921  11.015 -16.018  1.00  0.00     0.139 C 
HETATM    4  O   UNL     1      36.010  11.016 -16.834  1.00  0.00    -0.650 OA
BRANCH   3   5
HETATM    5  C   UNL     1      36.659  11.413 -14.593  1.00  0.00     0.113 C 
BRANCH   5   6
HETATM    6  C   UNL     1      35.422  10.695 -14.043  1.00  0.00     0.037 C 
BRANCH   6   7
HETATM    7  C   UNL     1      35.288  10.928 -12.557  1.00  0.00    -0.030 C 
HETATM    8  C   UNL     1      35.097   9.993 -11.602  1.00  0.00    -0.027 C 
BRANCH   8   9
HETATM    9  C   UNL     1      34.971   8.496 -11.790  1.00  0.00     0.053 C 
BRANCH   9  10
HETATM   10  C   UNL     1      34.617   7.820 -10.490  1.00  0.00    -0.027 C 
HETATM   11  C   UNL     1      33.904   6.687 -10.362  1.00  0.00    -0.027 C 
BRANCH  11  12
HETATM   12  C   UNL     1      33.377   5.853 -11.501  1.00  0.00     0.053 C 
BRANCH  12  13
HETATM   13  C   UNL     1      32.310   4.901 -11.022  1.00  0.00    -0.027 C 
HETATM   14  C   UNL     1      30.978   5.059 -11.144  1.00  0.00    -0.027 C 
BRANCH  14  15
HETATM   15  C   UNL     1      30.278   6.250 -11.744  1.00  0.00     0.053 C 
BRANCH  15  16
HETATM   16  C   UNL     1      30.625   7.474 -10.926  1.00  0.00    -0.027 C 
HETATM   17  C   UNL     1      30.850   8.728 -11.366  1.00  0.00    -0.027 C 
BRANCH  17  18
HETATM   18  C   UNL     1      30.790   9.217 -12.789  1.00  0.00     0.053 C 
BRANCH  18  19
HETATM   19  C   UNL     1      32.094   8.944 -13.502  1.00  0.00    -0.027 C 
HETATM   20  C   UNL     1      32.335   8.008 -14.442  1.00  0.00    -0.027 C 
BRANCH  20  21
HETATM   21  C   UNL     1      31.341   7.046 -15.044  1.00  0.00     0.053 C 
BRANCH  21  22
HETATM   22  C   UNL     1      31.859   5.627 -14.979  1.00  0.00    -0.027 C 
HETATM   23  C   UNL     1      32.479   4.940 -15.957  1.00  0.00    -0.031 C 
BRANCH  23  24
HETATM   24  C   UNL     1      32.779   5.433 -17.349  1.00  0.00     0.022 C 
HETATM   25  C   UNL     1      31.591   5.280 -18.290  1.00  0.00     0.009 C 
ENDBRANCH  23  24
ENDBRANCH  21  22
ENDBRANCH  20  21
ENDBRANCH  18  19
ENDBRANCH  17  18
ENDBRANCH  15  16
ENDBRANCH  14  15
ENDBRANCH  12  13
ENDBRANCH  11  12
ENDBRANCH   9  10
ENDBRANCH   8   9
ENDBRANCH   6   7
ENDBRANCH   5   6
ENDBRANCH   3   5
ENDBRANCH   1   3
TORSDOF 15
ENDMDL
MODEL 18
REMARK VINA RESULT:      -4.2     45.004     47.597
REMARK  15 active torsions:
REMARK  status: ('A' for Active; 'I' for Inactive)
REMARK    1  A    between atoms: O_1  and  C_23 
REMARK    2  A    between atoms: C_3  and  C_7 
REMARK    3  A    between atoms: C_3  and  C_8 
REMARK    4  A    between atoms: C_4  and  C_10 
REMARK    5  A    between atoms: C_4  and  C_11 
REMARK    6  A    between atoms: C_5  and  C_12 
REMARK    7  A    between atoms: C_5  and  C_13 
REMARK    8  A    between atoms: C_6  and  C_15 
REMARK    9  A    between atoms: C_6  and  C_16 
REMARK   10  A    between atoms: C_7  and  C_23 
REMARK   11  A    between atoms: C_9  and  C_17 
REMARK   12  A    between atoms: C_9  and  C_18 
REMARK   13  A    between atoms: C_14  and  C_19 
REMARK   14  A    between atoms: C_14  and  C_20 
REMARK   15  A    between atoms: C_21  and  C_22 
ROOT
HETATM    1  O   UNL     1     -14.489   5.623 -18.588  1.00  0.00    -0.776 OA
HETATM    2  H   UNL     1     -14.501   4.681 -18.809  1.00  0.00     0.167 HD
ENDROOT
BRANCH   1   3
HETATM    3  C   UNL     1     -14.633   6.571 -19.538  1.00  0.00     0.139 C 
HETATM    4  O   UNL     1     -15.531   6.479 -20.364  1.00  0.00    -0.650 OA
BRANCH   3   5
HETATM    5  C   UNL     1     -13.691   7.740 -19.575  1.00  0.00     0.113 C 
BRANCH   5   6
HETATM    6  C   UNL     1     -14.217   8.895 -18.716  1.00  0.00     0.037 C 
BRANCH   6   7
HETATM    7  C   UNL     1     -13.099   9.843 -18.355  1.00  0.00    -0.030 C 
HETATM    8  C   UNL     1     -12.760  10.981 -18.998  1.00  0.00    -0.027 C 
BRANCH   8   9
HETATM    9  C   UNL     1     -13.415  11.576 -20.226  1.00  0.00     0.053 C 
BRANCH   9  10
HETATM   10  C   UNL     1     -12.967  10.858 -21.474  1.00  0.00    -0.027 C 
HETATM   11  C   UNL     1     -13.766  10.463 -22.482  1.00  0.00    -0.027 C 
BRANCH  11  12
HETATM   12  C   UNL     1     -15.248  10.719 -22.575  1.00  0.00     0.053 C 
BRANCH  12  13
HETATM   13  C   UNL     1     -16.025   9.653 -21.844  1.00  0.00    -0.027 C 
HETATM   14  C   UNL     1     -17.102   9.840 -21.059  1.00  0.00    -0.027 C 
BRANCH  14  15
HETATM   15  C   UNL     1     -17.726  11.165 -20.710  1.00  0.00     0.053 C 
BRANCH  15  16
HETATM   16  C   UNL     1     -16.778  11.918 -19.803  1.00  0.00    -0.027 C 
HETATM   17  C   UNL     1     -16.576  11.738 -18.482  1.00  0.00    -0.027 C 
BRANCH  17  18
HETATM   18  C   UNL     1     -17.238  10.719 -17.592  1.00  0.00     0.053 C 
BRANCH  18  19
HETATM   19  C   UNL     1     -17.727  11.365 -16.316  1.00  0.00    -0.027 C 
HETATM   20  C   UNL     1     -16.987  11.763 -15.261  1.00  0.00    -0.027 C 
BRANCH  20  21
HETATM   21  C   UNL     1     -15.485  11.707 -15.131  1.00  0.00     0.053 C 
BRANCH  21  22
HETATM   22  C   UNL     1     -15.004  10.277 -15.054  1.00  0.00    -0.027 C 
HETATM   23  C   UNL     1     -13.766   9.849 -14.738  1.00  0.00    -0.031 C 
BRANCH  23  24
HETATM   24  C   UNL     1     -12.576  10.711 -14.409  1.00  0.00     0.022 C 
HETATM   25  C   UNL     1     -12.485  11.037 -12.923  1.00  0.00     0.009 C 
ENDBRANCH  23  24
ENDBRANCH  21  22
ENDBRANCH  20  21
ENDBRANCH  18  19
ENDBRANCH  17  18
ENDBRANCH  15  16
ENDBRANCH  14  15
ENDBRANCH  12  13
ENDBRANCH  11  12
ENDBRANCH   9  10
ENDBRANCH   8   9
ENDBRANCH   6   7
ENDBRANCH   5   6
ENDBRANCH   3   5
ENDBRANCH   1   3
TORSDOF 15
ENDMDL
MODEL 19
REMARK VINA RESULT:      -4.2     47.243     50.063
REMARK  15 active torsions:
REMARK  status: ('A' for Active; 'I' for Inactive)
REMARK    1  A    between atoms: O_1  and  C_23 
REMARK    2  A    between atoms: C_3  and  C_7 
REMARK    3  A    between atoms: C_3  and  C_8 
REMARK    4  A    between atoms: C_4  and  C_10 
REMARK    5  A    between atoms: C_4  and  C_11 
REMARK    6  A    between atoms: C_5  and  C_12 
REMARK    7  A    between atoms: C_5  and  C_13 
REMARK    8  A    between atoms: C_6  and  C_15 
REMARK    9  A    between atoms: C_6  and  C_16 
REMARK   10  A    between atoms: C_7  and  C_23 
REMARK   11  A    between atoms: C_9  and  C_17 
REMARK   12  A    between atoms: C_9  and  C_18 
REMARK   13  A    between atoms: C_14  and  C_19 
REMARK   14  A    between atoms: C_14  and  C_20 
REMARK   15  A    between atoms: C_21  and  C_22 
ROOT
HETATM    1  O   UNL     1     -16.779   8.577 -18.581  1.00  0.00    -0.776 OA
HETATM    2  H   UNL     1     -16.640   7.631 -18.726  1.00  0.00     0.167 HD
ENDROOT
BRANCH   1   3
HETATM    3  C   UNL     1     -16.022   9.275 -17.707  1.00  0.00     0.139 C 
HETATM    4  O   UNL     1     -16.241   9.194 -16.507  1.00  0.00    -0.650 OA
BRANCH   3   5
HETATM    5  C   UNL     1     -14.909  10.146 -18.215  1.00  0.00     0.113 C 
BRANCH   5   6
HETATM    6  C   UNL     1     -15.463  11.420 -18.863  1.00  0.00     0.037 C 
BRANCH   6   7
HETATM    7  C   UNL     1     -14.849  11.636 -20.225  1.00  0.00    -0.030 C 
HETATM    8  C   UNL     1     -15.300  11.158 -21.404  1.00  0.00    -0.027 C 
BRANCH   8   9
HETATM    9  C   UNL     1     -16.522  10.298 -21.643  1.00  0.00     0.053 C 
BRANCH   9  10
HETATM   10  C   UNL     1     -17.613  11.090 -22.319  1.00  0.00    -0.027 C 
HETATM   11  C   UNL     1     -18.609  11.745 -21.695  1.00  0.00    -0.027 C 
BRANCH  11  12
HETATM   12  C   UNL     1     -18.783  11.855 -20.203  1.00  0.00     0.053 C 
BRANCH  12  13
HETATM   13  C   UNL     1     -19.133  13.267 -19.805  1.00  0.00    -0.027 C 
HETATM   14  C   UNL     1     -20.078  13.642 -18.921  1.00  0.00    -0.027 C 
BRANCH  14  15
HETATM   15  C   UNL     1     -21.015  12.724 -18.183  1.00  0.00     0.053 C 
BRANCH  15  16
HETATM   16  C   UNL     1     -20.923  13.030 -16.705  1.00  0.00    -0.027 C 
HETATM   17  C   UNL     1     -20.052  12.526 -15.806  1.00  0.00    -0.027 C 
BRANCH  17  18
HETATM   18  C   UNL     1     -18.942  11.543 -16.069  1.00  0.00     0.053 C 
BRANCH  18  19
HETATM   19  C   UNL     1     -17.602  12.145 -15.718  1.00  0.00    -0.027 C 
HETATM   20  C   UNL     1     -16.985  12.133 -14.519  1.00  0.00    -0.027 C 
BRANCH  20  21
HETATM   21  C   UNL     1     -17.467  11.464 -13.255  1.00  0.00     0.053 C 
BRANCH  21  22
HETATM   22  C   UNL     1     -16.465  10.441 -12.772  1.00  0.00    -0.027 C 
HETATM   23  C   UNL     1     -15.601  10.567 -11.746  1.00  0.00    -0.031 C 
BRANCH  23  24
HETATM   24  C   UNL     1     -15.430  11.773 -10.860  1.00  0.00     0.022 C 
HETATM   25  C   UNL     1     -16.353  11.742  -9.648  1.00  0.00     0.009 C 
ENDBRANCH  23  24
ENDBRANCH  21  22
ENDBRANCH  20  21
ENDBRANCH  18  19
ENDBRANCH  17  18
ENDBRANCH  15  16
ENDBRANCH  14  15
ENDBRANCH  12  13
ENDBRANCH  11  12
ENDBRANCH   9  10
ENDBRANCH   8   9
ENDBRANCH   6   7
ENDBRANCH   5   6
ENDBRANCH   3   5
ENDBRANCH   1   3
TORSDOF 15
ENDMDL
MODEL 20
REMARK VINA RESULT:      -4.1     45.599     48.676
REMARK  15 active torsions:
REMARK  status: ('A' for Active; 'I' for Inactive)
REMARK    1  A    between atoms: O_1  and  C_23 
REMARK    2  A    between atoms: C_3  and  C_7 
REMARK    3  A    between atoms: C_3  and  C_8 
REMARK    4  A    between atoms: C_4  and  C_10 
REMARK    5  A    between atoms: C_4  and  C_11 
REMARK    6  A    between atoms: C_5  and  C_12 
REMARK    7  A    between atoms: C_5  and  C_13 
REMARK    8  A    between atoms: C_6  and  C_15 
REMARK    9  A    between atoms: C_6  and  C_16 
REMARK   10  A    between atoms: C_7  and  C_23 
REMARK   11  A    between atoms: C_9  and  C_17 
REMARK   12  A    between atoms: C_9  and  C_18 
REMARK   13  A    between atoms: C_14  and  C_19 
REMARK   14  A    between atoms: C_14  and  C_20 
REMARK   15  A    between atoms: C_21  and  C_22 
ROOT
HETATM    1  O   UNL     1     -19.087   5.462 -11.568  1.00  0.00    -0.776 OA
HETATM    2  H   UNL     1     -19.203   5.811 -10.673  1.00  0.00     0.167 HD
ENDROOT
BRANCH   1   3
HETATM    3  C   UNL     1     -18.210   6.018 -12.431  1.00  0.00     0.139 C 
HETATM    4  O   UNL     1     -17.588   5.312 -13.212  1.00  0.00    -0.650 OA
BRANCH   3   5
HETATM    5  C   UNL     1     -18.005   7.506 -12.431  1.00  0.00     0.113 C 
BRANCH   5   6
HETATM    6  C   UNL     1     -16.521   7.854 -12.263  1.00  0.00     0.037 C 
BRANCH   6   7
HETATM    7  C   UNL     1     -16.124   7.800 -10.808  1.00  0.00    -0.030 C 
HETATM    8  C   UNL     1     -14.967   8.237 -10.265  1.00  0.00    -0.027 C 
BRANCH   8   9
HETATM    9  C   UNL     1     -13.800   8.882 -10.980  1.00  0.00     0.053 C 
BRANCH   9  10
HETATM   10  C   UNL     1     -13.185   9.968 -10.133  1.00  0.00    -0.027 C 
HETATM   11  C   UNL     1     -13.655  11.221 -10.000  1.00  0.00    -0.027 C 
BRANCH  11  12
HETATM   12  C   UNL     1     -14.917  11.753 -10.628  1.00  0.00     0.053 C 
BRANCH  12  13
HETATM   13  C   UNL     1     -16.036  11.816  -9.618  1.00  0.00    -0.027 C 
HETATM   14  C   UNL     1     -17.328  11.502  -9.831  1.00  0.00    -0.027 C 
BRANCH  14  15
HETATM   15  C   UNL     1     -17.932  11.069 -11.140  1.00  0.00     0.053 C 
BRANCH  15  16
HETATM   16  C   UNL     1     -18.921  12.123 -11.585  1.00  0.00    -0.027 C 
HETATM   17  C   UNL     1     -19.337  12.393 -12.839  1.00  0.00    -0.027 C 
BRANCH  17  18
HETATM   18  C   UNL     1     -18.926  11.688 -14.105  1.00  0.00     0.053 C 
BRANCH  18  19
HETATM   19  C   UNL     1     -17.766  12.401 -14.759  1.00  0.00    -0.027 C 
HETATM   20  C   UNL     1     -16.464  12.047 -14.733  1.00  0.00    -0.027 C 
BRANCH  20  21
HETATM   21  C   UNL     1     -15.868  10.821 -14.086  1.00  0.00     0.053 C 
BRANCH  21  22
HETATM   22  C   UNL     1     -14.359  10.859 -14.151  1.00  0.00    -0.027 C 
HETATM   23  C   UNL     1     -13.532   9.855 -14.502  1.00  0.00    -0.031 C 
BRANCH  23  24
HETATM   24  C   UNL     1     -13.934   8.457 -14.892  1.00  0.00     0.022 C 
HETATM   25  C   UNL     1     -13.010   7.399 -14.303  1.00  0.00     0.009 C 
ENDBRANCH  23  24
ENDBRANCH  21  22
ENDBRANCH  20  21
ENDBRANCH  18  19
ENDBRANCH  17  18
ENDBRANCH  15  16
ENDBRANCH  14  15
ENDBRANCH  12  13
ENDBRANCH  11  12
ENDBRANCH   9  10
ENDBRANCH   8   9
ENDBRANCH   6   7
ENDBRANCH   5   6
ENDBRANCH   3   5
ENDBRANCH   1   3
TORSDOF 15
ENDMDL
