REMARK  15 active torsions:
REMARK  status: ('A' for Active; 'I' for Inactive)
REMARK    1  A    between atoms: O_1  and  C_22 
REMARK    2  A    between atoms: C_3  and  C_4 
REMARK    3  A    between atoms: C_3  and  C_5 
REMARK    4  A    between atoms: C_4  and  C_6 
REMARK    5  A    between atoms: C_5  and  C_7 
REMARK    6  A    between atoms: C_9  and  C_10 
REMARK    7  A    between atoms: C_9  and  C_13 
REMARK    8  A    between atoms: C_10  and  C_14 
REMARK    9  A    between atoms: C_11  and  C_12 
REMARK   10  A    between atoms: C_12  and  C_16 
REMARK   11  A    between atoms: C_13  and  C_22 
REMARK   12  A    between atoms: C_15  and  C_17 
REMARK   13  A    between atoms: C_15  and  C_20 
REMARK   14  A    between atoms: C_18  and  C_19 
REMARK   15  A    between atoms: C_18  and  C_21 
ROOT
HETATM    1  O   UNL     1       0.364  -2.350   2.910  1.00  0.00    -0.776 OA
HETATM    2  H   UNL     1       0.695  -1.615   3.445  1.00  0.00     0.167 HD
ENDROOT
BRANCH   1   3
HETATM    3  C   UNL     1      -0.616  -2.171   1.999  1.00  0.00     0.139 C 
HETATM    4  O   UNL     1      -1.106  -1.063   1.836  1.00  0.00    -0.650 OA
BRANCH   3   5
HETATM    5  C   UNL     1      -1.111  -3.341   1.194  1.00  0.00     0.110 C 
BRANCH   5   6
HETATM    6  C   UNL     1      -0.933  -3.128  -0.316  1.00  0.00     0.014 C 
BRANCH   6   7
HETATM    7  C   UNL     1       0.540  -3.002  -0.726  1.00  0.00     0.027 C 
BRANCH   7   8
HETATM    8  C   UNL     1       0.637  -2.805  -2.218  1.00  0.00    -0.030 C 
HETATM    9  C   UNL     1       1.161  -1.724  -2.826  1.00  0.00    -0.027 C 
BRANCH   9  10
HETATM   10  C   UNL     1       1.764  -0.533  -2.125  1.00  0.00     0.053 C 
BRANCH  10  11
HETATM   11  C   UNL     1       3.085  -0.888  -1.479  1.00  0.00    -0.027 C 
HETATM   12  C   UNL     1       3.433  -0.734  -0.185  1.00  0.00    -0.027 C 
BRANCH  12  13
HETATM   13  C   UNL     1       2.574  -0.188   0.927  1.00  0.00     0.053 C 
BRANCH  13  14
HETATM   14  C   UNL     1       3.234   1.023   1.543  1.00  0.00    -0.027 C 
HETATM   15  C   UNL     1       2.670   2.244   1.644  1.00  0.00    -0.027 C 
BRANCH  15  16
HETATM   16  C   UNL     1       1.294   2.593   1.140  1.00  0.00     0.053 C 
BRANCH  16  17
HETATM   17  C   UNL     1       1.218   2.507  -0.364  1.00  0.00    -0.027 C 
HETATM   18  C   UNL     1       0.090   2.699  -1.070  1.00  0.00    -0.030 C 
BRANCH  18  19
HETATM   19  C   UNL     1      -1.257   3.014  -0.470  1.00  0.00     0.027 C 
BRANCH  19  20
HETATM   20  C   UNL     1      -2.246   1.894  -0.809  1.00  0.00     0.004 C 
BRANCH  20  21
HETATM   21  C   UNL     1      -3.633   2.183  -0.225  1.00  0.00    -0.000 C 
BRANCH  21  22
HETATM   22  C   UNL     1      -4.613   1.052  -0.559  1.00  0.00    -0.005 C 
HETATM   23  C   UNL     1      -5.996   1.332   0.021  1.00  0.00     0.005 C 
ENDBRANCH  21  22
ENDBRANCH  20  21
ENDBRANCH  19  20
ENDBRANCH  18  19
ENDBRANCH  16  17
ENDBRANCH  15  16
ENDBRANCH  13  14
ENDBRANCH  12  13
ENDBRANCH  10  11
ENDBRANCH   9  10
ENDBRANCH   7   8
ENDBRANCH   6   7
ENDBRANCH   5   6
ENDBRANCH   3   5
ENDBRANCH   1   3
TORSDOF 15
