MODEL 1
REMARK VINA RESULT:      -4.9      0.000      0.000
REMARK  15 active torsions:
REMARK  status: ('A' for Active; 'I' for Inactive)
REMARK    1  A    between atoms: O_1  and  C_22 
REMARK    2  A    between atoms: C_3  and  C_4 
REMARK    3  A    between atoms: C_3  and  C_5 
REMARK    4  A    between atoms: C_4  and  C_6 
REMARK    5  A    between atoms: C_5  and  C_7 
REMARK    6  A    between atoms: C_9  and  C_10 
REMARK    7  A    between atoms: C_9  and  C_13 
REMARK    8  A    between atoms: C_10  and  C_14 
REMARK    9  A    between atoms: C_11  and  C_12 
REMARK   10  A    between atoms: C_12  and  C_16 
REMARK   11  A    between atoms: C_13  and  C_22 
REMARK   12  A    between atoms: C_15  and  C_17 
REMARK   13  A    between atoms: C_15  and  C_20 
REMARK   14  A    between atoms: C_18  and  C_19 
REMARK   15  A    between atoms: C_18  and  C_21 
ROOT
HETATM    1  O   UNL     1      31.068 -18.773  -6.727  1.00  0.00    -0.776 OA
HETATM    2  H   UNL     1      30.431 -18.313  -6.163  1.00  0.00     0.167 HD
ENDROOT
BRANCH   1   3
HETATM    3  C   UNL     1      30.840 -20.029  -7.166  1.00  0.00     0.139 C 
HETATM    4  O   UNL     1      30.854 -20.965  -6.379  1.00  0.00    -0.650 OA
BRANCH   3   5
HETATM    5  C   UNL     1      30.579 -20.275  -8.626  1.00  0.00     0.110 C 
BRANCH   5   6
HETATM    6  C   UNL     1      29.776 -19.139  -9.276  1.00  0.00     0.014 C 
BRANCH   6   7
HETATM    7  C   UNL     1      30.340 -18.722 -10.640  1.00  0.00     0.027 C 
BRANCH   7   8
HETATM    8  C   UNL     1      30.973 -19.913 -11.315  1.00  0.00    -0.030 C 
HETATM    9  C   UNL     1      30.747 -20.296 -12.586  1.00  0.00    -0.027 C 
BRANCH   9  10
HETATM   10  C   UNL     1      29.843 -19.590 -13.564  1.00  0.00     0.053 C 
BRANCH  10  11
HETATM   11  C   UNL     1      30.613 -19.108 -14.773  1.00  0.00    -0.027 C 
HETATM   12  C   UNL     1      30.970 -17.840 -15.067  1.00  0.00    -0.027 C 
BRANCH  12  13
HETATM   13  C   UNL     1      30.699 -16.607 -14.244  1.00  0.00     0.053 C 
BRANCH  13  14
HETATM   14  C   UNL     1      31.751 -16.460 -13.171  1.00  0.00    -0.027 C 
HETATM   15  C   UNL     1      32.448 -15.333 -12.919  1.00  0.00    -0.027 C 
BRANCH  15  16
HETATM   16  C   UNL     1      32.293 -14.045 -13.685  1.00  0.00     0.053 C 
BRANCH  16  17
HETATM   17  C   UNL     1      31.530 -13.016 -12.889  1.00  0.00    -0.027 C 
HETATM   18  C   UNL     1      30.321 -12.543 -13.239  1.00  0.00    -0.030 C 
BRANCH  18  19
HETATM   19  C   UNL     1      29.560 -12.956 -14.473  1.00  0.00     0.027 C 
BRANCH  19  20
HETATM   20  C   UNL     1      28.243 -13.624 -14.066  1.00  0.00     0.004 C 
BRANCH  20  21
HETATM   21  C   UNL     1      28.341 -14.236 -12.664  1.00  0.00    -0.000 C 
BRANCH  21  22
HETATM   22  C   UNL     1      27.063 -13.968 -11.860  1.00  0.00    -0.005 C 
HETATM   23  C   UNL     1      27.373 -13.228 -10.563  1.00  0.00     0.005 C 
ENDBRANCH  21  22
ENDBRANCH  20  21
ENDBRANCH  19  20
ENDBRANCH  18  19
ENDBRANCH  16  17
ENDBRANCH  15  16
ENDBRANCH  13  14
ENDBRANCH  12  13
ENDBRANCH  10  11
ENDBRANCH   9  10
ENDBRANCH   7   8
ENDBRANCH   6   7
ENDBRANCH   5   6
ENDBRANCH   3   5
ENDBRANCH   1   3
TORSDOF 15
ENDMDL
MODEL 2
REMARK VINA RESULT:      -4.9     25.990     28.070
REMARK  15 active torsions:
REMARK  status: ('A' for Active; 'I' for Inactive)
REMARK    1  A    between atoms: O_1  and  C_22 
REMARK    2  A    between atoms: C_3  and  C_4 
REMARK    3  A    between atoms: C_3  and  C_5 
REMARK    4  A    between atoms: C_4  and  C_6 
REMARK    5  A    between atoms: C_5  and  C_7 
REMARK    6  A    between atoms: C_9  and  C_10 
REMARK    7  A    between atoms: C_9  and  C_13 
REMARK    8  A    between atoms: C_10  and  C_14 
REMARK    9  A    between atoms: C_11  and  C_12 
REMARK   10  A    between atoms: C_12  and  C_16 
REMARK   11  A    between atoms: C_13  and  C_22 
REMARK   12  A    between atoms: C_15  and  C_17 
REMARK   13  A    between atoms: C_15  and  C_20 
REMARK   14  A    between atoms: C_18  and  C_19 
REMARK   15  A    between atoms: C_18  and  C_21 
ROOT
HETATM    1  O   UNL     1      38.865   6.307 -19.879  1.00  0.00    -0.776 OA
HETATM    2  H   UNL     1      38.920   6.541 -20.816  1.00  0.00     0.167 HD
ENDROOT
BRANCH   1   3
HETATM    3  C   UNL     1      39.160   7.201 -18.911  1.00  0.00     0.139 C 
HETATM    4  O   UNL     1      39.440   6.815 -17.786  1.00  0.00    -0.650 OA
BRANCH   3   5
HETATM    5  C   UNL     1      39.133   8.672 -19.220  1.00  0.00     0.110 C 
BRANCH   5   6
HETATM    6  C   UNL     1      37.823   9.338 -18.773  1.00  0.00     0.014 C 
BRANCH   6   7
HETATM    7  C   UNL     1      38.022  10.305 -17.599  1.00  0.00     0.027 C 
BRANCH   7   8
HETATM    8  C   UNL     1      37.069   9.955 -16.485  1.00  0.00    -0.030 C 
HETATM    9  C   UNL     1      37.420   9.415 -15.303  1.00  0.00    -0.027 C 
BRANCH   9  10
HETATM   10  C   UNL     1      38.829   9.089 -14.875  1.00  0.00     0.053 C 
BRANCH  10  11
HETATM   11  C   UNL     1      38.973   7.621 -14.537  1.00  0.00    -0.027 C 
HETATM   12  C   UNL     1      39.357   7.084 -13.361  1.00  0.00    -0.027 C 
BRANCH  12  13
HETATM   13  C   UNL     1      39.714   7.825 -12.098  1.00  0.00     0.053 C 
BRANCH  13  14
HETATM   14  C   UNL     1      39.367   6.987 -10.891  1.00  0.00    -0.027 C 
HETATM   15  C   UNL     1      38.617   7.402  -9.850  1.00  0.00    -0.027 C 
BRANCH  15  16
HETATM   16  C   UNL     1      38.021   8.780  -9.723  1.00  0.00     0.053 C 
BRANCH  16  17
HETATM   17  C   UNL     1      37.045   9.064 -10.838  1.00  0.00    -0.027 C 
HETATM   18  C   UNL     1      37.008  10.219 -11.526  1.00  0.00    -0.030 C 
BRANCH  18  19
HETATM   19  C   UNL     1      37.920  11.395 -11.281  1.00  0.00     0.027 C 
BRANCH  19  20
HETATM   20  C   UNL     1      38.817  11.614 -12.504  1.00  0.00     0.004 C 
BRANCH  20  21
HETATM   21  C   UNL     1      40.297  11.455 -12.141  1.00  0.00    -0.000 C 
BRANCH  21  22
HETATM   22  C   UNL     1      40.508  11.597 -10.629  1.00  0.00    -0.005 C 
HETATM   23  C   UNL     1      41.284  10.410 -10.067  1.00  0.00     0.005 C 
ENDBRANCH  21  22
ENDBRANCH  20  21
ENDBRANCH  19  20
ENDBRANCH  18  19
ENDBRANCH  16  17
ENDBRANCH  15  16
ENDBRANCH  13  14
ENDBRANCH  12  13
ENDBRANCH  10  11
ENDBRANCH   9  10
ENDBRANCH   7   8
ENDBRANCH   6   7
ENDBRANCH   5   6
ENDBRANCH   3   5
ENDBRANCH   1   3
TORSDOF 15
ENDMDL
MODEL 3
REMARK VINA RESULT:      -4.9     25.910     27.946
REMARK  15 active torsions:
REMARK  status: ('A' for Active; 'I' for Inactive)
REMARK    1  A    between atoms: O_1  and  C_22 
REMARK    2  A    between atoms: C_3  and  C_4 
REMARK    3  A    between atoms: C_3  and  C_5 
REMARK    4  A    between atoms: C_4  and  C_6 
REMARK    5  A    between atoms: C_5  and  C_7 
REMARK    6  A    between atoms: C_9  and  C_10 
REMARK    7  A    between atoms: C_9  and  C_13 
REMARK    8  A    between atoms: C_10  and  C_14 
REMARK    9  A    between atoms: C_11  and  C_12 
REMARK   10  A    between atoms: C_12  and  C_16 
REMARK   11  A    between atoms: C_13  and  C_22 
REMARK   12  A    between atoms: C_15  and  C_17 
REMARK   13  A    between atoms: C_15  and  C_20 
REMARK   14  A    between atoms: C_18  and  C_19 
REMARK   15  A    between atoms: C_18  and  C_21 
ROOT
HETATM    1  O   UNL     1      38.868   6.311 -19.836  1.00  0.00    -0.776 OA
HETATM    2  H   UNL     1      38.833   6.467 -20.790  1.00  0.00     0.167 HD
ENDROOT
BRANCH   1   3
HETATM    3  C   UNL     1      39.241   7.284 -18.977  1.00  0.00     0.139 C 
HETATM    4  O   UNL     1      39.682   6.993 -17.875  1.00  0.00    -0.650 OA
BRANCH   3   5
HETATM    5  C   UNL     1      39.100   8.727 -19.377  1.00  0.00     0.110 C 
BRANCH   5   6
HETATM    6  C   UNL     1      37.869   9.391 -18.743  1.00  0.00     0.014 C 
BRANCH   6   7
HETATM    7  C   UNL     1      38.210  10.180 -17.473  1.00  0.00     0.027 C 
BRANCH   7   8
HETATM    8  C   UNL     1      37.190   9.885 -16.402  1.00  0.00    -0.030 C 
HETATM    9  C   UNL     1      37.475   9.518 -15.138  1.00  0.00    -0.027 C 
BRANCH   9  10
HETATM   10  C   UNL     1      38.860   9.361 -14.564  1.00  0.00     0.053 C 
BRANCH  10  11
HETATM   11  C   UNL     1      39.172   7.910 -14.272  1.00  0.00    -0.027 C 
HETATM   12  C   UNL     1      39.259   7.317 -13.064  1.00  0.00    -0.027 C 
BRANCH  12  13
HETATM   13  C   UNL     1      39.045   7.962 -11.718  1.00  0.00     0.053 C 
BRANCH  13  14
HETATM   14  C   UNL     1      39.056   6.912 -10.633  1.00  0.00    -0.027 C 
HETATM   15  C   UNL     1      39.116   7.167  -9.310  1.00  0.00    -0.027 C 
BRANCH  15  16
HETATM   16  C   UNL     1      39.197   8.545  -8.709  1.00  0.00     0.053 C 
BRANCH  16  17
HETATM   17  C   UNL     1      40.625   9.021  -8.609  1.00  0.00    -0.027 C 
HETATM   18  C   UNL     1      41.139   9.627  -7.525  1.00  0.00    -0.030 C 
BRANCH  18  19
HETATM   19  C   UNL     1      40.371   9.930  -6.263  1.00  0.00     0.027 C 
BRANCH  19  20
HETATM   20  C   UNL     1      41.055   9.257  -5.069  1.00  0.00     0.004 C 
BRANCH  20  21
HETATM   21  C   UNL     1      40.291   8.005  -4.625  1.00  0.00    -0.000 C 
BRANCH  21  22
HETATM   22  C   UNL     1      38.821   8.335  -4.340  1.00  0.00    -0.005 C 
HETATM   23  C   UNL     1      37.903   7.704  -5.382  1.00  0.00     0.005 C 
ENDBRANCH  21  22
ENDBRANCH  20  21
ENDBRANCH  19  20
ENDBRANCH  18  19
ENDBRANCH  16  17
ENDBRANCH  15  16
ENDBRANCH  13  14
ENDBRANCH  12  13
ENDBRANCH  10  11
ENDBRANCH   9  10
ENDBRANCH   7   8
ENDBRANCH   6   7
ENDBRANCH   5   6
ENDBRANCH   3   5
ENDBRANCH   1   3
TORSDOF 15
ENDMDL
MODEL 4
REMARK VINA RESULT:      -4.8     11.159     13.640
REMARK  15 active torsions:
REMARK  status: ('A' for Active; 'I' for Inactive)
REMARK    1  A    between atoms: O_1  and  C_22 
REMARK    2  A    between atoms: C_3  and  C_4 
REMARK    3  A    between atoms: C_3  and  C_5 
REMARK    4  A    between atoms: C_4  and  C_6 
REMARK    5  A    between atoms: C_5  and  C_7 
REMARK    6  A    between atoms: C_9  and  C_10 
REMARK    7  A    between atoms: C_9  and  C_13 
REMARK    8  A    between atoms: C_10  and  C_14 
REMARK    9  A    between atoms: C_11  and  C_12 
REMARK   10  A    between atoms: C_12  and  C_16 
REMARK   11  A    between atoms: C_13  and  C_22 
REMARK   12  A    between atoms: C_15  and  C_17 
REMARK   13  A    between atoms: C_15  and  C_20 
REMARK   14  A    between atoms: C_18  and  C_19 
REMARK   15  A    between atoms: C_18  and  C_21 
ROOT
HETATM    1  O   UNL     1      41.488 -18.055 -19.096  1.00  0.00    -0.776 OA
HETATM    2  H   UNL     1      40.613 -18.194 -18.707  1.00  0.00     0.167 HD
ENDROOT
BRANCH   1   3
HETATM    3  C   UNL     1      42.020 -16.819 -19.208  1.00  0.00     0.139 C 
HETATM    4  O   UNL     1      41.337 -15.894 -19.621  1.00  0.00    -0.650 OA
BRANCH   3   5
HETATM    5  C   UNL     1      43.458 -16.588 -18.833  1.00  0.00     0.110 C 
BRANCH   5   6
HETATM    6  C   UNL     1      43.601 -15.788 -17.531  1.00  0.00     0.014 C 
BRANCH   6   7
HETATM    7  C   UNL     1      43.492 -16.670 -16.280  1.00  0.00     0.027 C 
BRANCH   7   8
HETATM    8  C   UNL     1      44.794 -17.396 -16.055  1.00  0.00    -0.030 C 
HETATM    9  C   UNL     1      45.167 -17.983 -14.902  1.00  0.00    -0.027 C 
BRANCH   9  10
HETATM   10  C   UNL     1      44.341 -18.039 -13.642  1.00  0.00     0.053 C 
BRANCH  10  11
HETATM   11  C   UNL     1      44.704 -16.914 -12.698  1.00  0.00    -0.027 C 
HETATM   12  C   UNL     1      43.954 -15.841 -12.373  1.00  0.00    -0.027 C 
BRANCH  12  13
HETATM   13  C   UNL     1      42.564 -15.524 -12.862  1.00  0.00     0.053 C 
BRANCH  13  14
HETATM   14  C   UNL     1      41.743 -14.934 -11.740  1.00  0.00    -0.027 C 
HETATM   15  C   UNL     1      40.891 -13.897 -11.867  1.00  0.00    -0.027 C 
BRANCH  15  16
HETATM   16  C   UNL     1      40.638 -13.152 -13.152  1.00  0.00     0.053 C 
BRANCH  16  17
HETATM   17  C   UNL     1      39.409 -13.668 -13.857  1.00  0.00    -0.027 C 
HETATM   18  C   UNL     1      39.421 -14.201 -15.092  1.00  0.00    -0.030 C 
BRANCH  18  19
HETATM   19  C   UNL     1      40.650 -14.350 -15.952  1.00  0.00     0.027 C 
BRANCH  19  20
HETATM   20  C   UNL     1      40.467 -13.559 -17.252  1.00  0.00     0.004 C 
BRANCH  20  21
HETATM   21  C   UNL     1      41.397 -12.342 -17.296  1.00  0.00    -0.000 C 
BRANCH  21  22
HETATM   22  C   UNL     1      40.590 -11.040 -17.356  1.00  0.00    -0.005 C 
HETATM   23  C   UNL     1      39.094 -11.323 -17.454  1.00  0.00     0.005 C 
ENDBRANCH  21  22
ENDBRANCH  20  21
ENDBRANCH  19  20
ENDBRANCH  18  19
ENDBRANCH  16  17
ENDBRANCH  15  16
ENDBRANCH  13  14
ENDBRANCH  12  13
ENDBRANCH  10  11
ENDBRANCH   9  10
ENDBRANCH   7   8
ENDBRANCH   6   7
ENDBRANCH   5   6
ENDBRANCH   3   5
ENDBRANCH   1   3
TORSDOF 15
ENDMDL
MODEL 5
REMARK VINA RESULT:      -4.8     26.133     27.751
REMARK  15 active torsions:
REMARK  status: ('A' for Active; 'I' for Inactive)
REMARK    1  A    between atoms: O_1  and  C_22 
REMARK    2  A    between atoms: C_3  and  C_4 
REMARK    3  A    between atoms: C_3  and  C_5 
REMARK    4  A    between atoms: C_4  and  C_6 
REMARK    5  A    between atoms: C_5  and  C_7 
REMARK    6  A    between atoms: C_9  and  C_10 
REMARK    7  A    between atoms: C_9  and  C_13 
REMARK    8  A    between atoms: C_10  and  C_14 
REMARK    9  A    between atoms: C_11  and  C_12 
REMARK   10  A    between atoms: C_12  and  C_16 
REMARK   11  A    between atoms: C_13  and  C_22 
REMARK   12  A    between atoms: C_15  and  C_17 
REMARK   13  A    between atoms: C_15  and  C_20 
REMARK   14  A    between atoms: C_18  and  C_19 
REMARK   15  A    between atoms: C_18  and  C_21 
ROOT
HETATM    1  O   UNL     1      39.995  11.218  -7.973  1.00  0.00    -0.776 OA
HETATM    2  H   UNL     1      39.661  11.423  -7.088  1.00  0.00     0.167 HD
ENDROOT
BRANCH   1   3
HETATM    3  C   UNL     1      40.612  10.047  -8.237  1.00  0.00     0.139 C 
HETATM    4  O   UNL     1      41.624  10.028  -8.922  1.00  0.00    -0.650 OA
BRANCH   3   5
HETATM    5  C   UNL     1      40.044   8.764  -7.696  1.00  0.00     0.110 C 
BRANCH   5   6
HETATM    6  C   UNL     1      38.573   8.565  -8.088  1.00  0.00     0.014 C 
BRANCH   6   7
HETATM    7  C   UNL     1      38.357   8.591  -9.607  1.00  0.00     0.027 C 
BRANCH   7   8
HETATM    8  C   UNL     1      38.620   7.221 -10.181  1.00  0.00    -0.030 C 
HETATM    9  C   UNL     1      39.265   6.974 -11.337  1.00  0.00    -0.027 C 
BRANCH   9  10
HETATM   10  C   UNL     1      39.858   8.019 -12.248  1.00  0.00     0.053 C 
BRANCH  10  11
HETATM   11  C   UNL     1      39.900   7.537 -13.681  1.00  0.00    -0.027 C 
HETATM   12  C   UNL     1      39.042   7.844 -14.675  1.00  0.00    -0.027 C 
BRANCH  12  13
HETATM   13  C   UNL     1      37.847   8.759 -14.592  1.00  0.00     0.053 C 
BRANCH  13  14
HETATM   14  C   UNL     1      37.269   8.982 -15.970  1.00  0.00    -0.027 C 
HETATM   15  C   UNL     1      37.649   9.957 -16.820  1.00  0.00    -0.027 C 
BRANCH  15  16
HETATM   16  C   UNL     1      38.702  10.991 -16.517  1.00  0.00     0.053 C 
BRANCH  16  17
HETATM   17  C   UNL     1      39.484  11.361 -17.753  1.00  0.00    -0.027 C 
HETATM   18  C   UNL     1      40.420  10.574 -18.312  1.00  0.00    -0.030 C 
BRANCH  18  19
HETATM   19  C   UNL     1      40.832   9.222 -17.788  1.00  0.00     0.027 C 
BRANCH  19  20
HETATM   20  C   UNL     1      40.655   8.168 -18.885  1.00  0.00     0.004 C 
BRANCH  20  21
HETATM   21  C   UNL     1      39.428   7.289 -18.618  1.00  0.00    -0.000 C 
BRANCH  21  22
HETATM   22  C   UNL     1      38.621   7.071 -19.904  1.00  0.00    -0.005 C 
HETATM   23  C   UNL     1      37.678   8.241 -20.168  1.00  0.00     0.005 C 
ENDBRANCH  21  22
ENDBRANCH  20  21
ENDBRANCH  19  20
ENDBRANCH  18  19
ENDBRANCH  16  17
ENDBRANCH  15  16
ENDBRANCH  13  14
ENDBRANCH  12  13
ENDBRANCH  10  11
ENDBRANCH   9  10
ENDBRANCH   7   8
ENDBRANCH   6   7
ENDBRANCH   5   6
ENDBRANCH   3   5
ENDBRANCH   1   3
TORSDOF 15
ENDMDL
MODEL 6
REMARK VINA RESULT:      -4.8      3.048      4.981
REMARK  15 active torsions:
REMARK  status: ('A' for Active; 'I' for Inactive)
REMARK    1  A    between atoms: O_1  and  C_22 
REMARK    2  A    between atoms: C_3  and  C_4 
REMARK    3  A    between atoms: C_3  and  C_5 
REMARK    4  A    between atoms: C_4  and  C_6 
REMARK    5  A    between atoms: C_5  and  C_7 
REMARK    6  A    between atoms: C_9  and  C_10 
REMARK    7  A    between atoms: C_9  and  C_13 
REMARK    8  A    between atoms: C_10  and  C_14 
REMARK    9  A    between atoms: C_11  and  C_12 
REMARK   10  A    between atoms: C_12  and  C_16 
REMARK   11  A    between atoms: C_13  and  C_22 
REMARK   12  A    between atoms: C_15  and  C_17 
REMARK   13  A    between atoms: C_15  and  C_20 
REMARK   14  A    between atoms: C_18  and  C_19 
REMARK   15  A    between atoms: C_18  and  C_21 
ROOT
HETATM    1  O   UNL     1      31.714 -21.146 -15.053  1.00  0.00    -0.776 OA
HETATM    2  H   UNL     1      32.013 -21.993 -14.691  1.00  0.00     0.167 HD
ENDROOT
BRANCH   1   3
HETATM    3  C   UNL     1      30.880 -20.341 -14.362  1.00  0.00     0.139 C 
HETATM    4  O   UNL     1      29.978 -20.823 -13.693  1.00  0.00    -0.650 OA
BRANCH   3   5
HETATM    5  C   UNL     1      31.057 -18.849 -14.427  1.00  0.00     0.110 C 
BRANCH   5   6
HETATM    6  C   UNL     1      29.893 -18.094 -13.770  1.00  0.00     0.014 C 
BRANCH   6   7
HETATM    7  C   UNL     1      30.363 -17.078 -12.721  1.00  0.00     0.027 C 
BRANCH   7   8
HETATM    8  C   UNL     1      30.564 -17.771 -11.397  1.00  0.00    -0.030 C 
HETATM    9  C   UNL     1      30.930 -17.166 -10.251  1.00  0.00    -0.027 C 
BRANCH   9  10
HETATM   10  C   UNL     1      31.180 -15.689 -10.084  1.00  0.00     0.053 C 
BRANCH  10  11
HETATM   11  C   UNL     1      32.621 -15.340 -10.384  1.00  0.00    -0.027 C 
HETATM   12  C   UNL     1      33.078 -14.319 -11.138  1.00  0.00    -0.027 C 
BRANCH  12  13
HETATM   13  C   UNL     1      32.254 -13.272 -11.843  1.00  0.00     0.053 C 
BRANCH  13  14
HETATM   14  C   UNL     1      32.492 -11.918 -11.216  1.00  0.00    -0.027 C 
HETATM   15  C   UNL     1      31.723 -11.363 -10.258  1.00  0.00    -0.027 C 
BRANCH  15  16
HETATM   16  C   UNL     1      30.491 -12.004  -9.675  1.00  0.00     0.053 C 
BRANCH  16  17
HETATM   17  C   UNL     1      29.233 -11.454 -10.299  1.00  0.00    -0.027 C 
HETATM   18  C   UNL     1      28.303 -12.212 -10.906  1.00  0.00    -0.030 C 
BRANCH  18  19
HETATM   19  C   UNL     1      28.384 -13.710 -11.063  1.00  0.00     0.027 C 
BRANCH  19  20
HETATM   20  C   UNL     1      28.772 -14.056 -12.504  1.00  0.00     0.004 C 
BRANCH  20  21
HETATM   21  C   UNL     1      28.832 -12.800 -13.379  1.00  0.00    -0.000 C 
BRANCH  21  22
HETATM   22  C   UNL     1      29.740 -13.023 -14.595  1.00  0.00    -0.005 C 
HETATM   23  C   UNL     1      30.644 -11.819 -14.836  1.00  0.00     0.005 C 
ENDBRANCH  21  22
ENDBRANCH  20  21
ENDBRANCH  19  20
ENDBRANCH  18  19
ENDBRANCH  16  17
ENDBRANCH  15  16
ENDBRANCH  13  14
ENDBRANCH  12  13
ENDBRANCH  10  11
ENDBRANCH   9  10
ENDBRANCH   7   8
ENDBRANCH   6   7
ENDBRANCH   5   6
ENDBRANCH   3   5
ENDBRANCH   1   3
TORSDOF 15
ENDMDL
MODEL 7
REMARK VINA RESULT:      -4.8     25.945     28.244
REMARK  15 active torsions:
REMARK  status: ('A' for Active; 'I' for Inactive)
REMARK    1  A    between atoms: O_1  and  C_22 
REMARK    2  A    between atoms: C_3  and  C_4 
REMARK    3  A    between atoms: C_3  and  C_5 
REMARK    4  A    between atoms: C_4  and  C_6 
REMARK    5  A    between atoms: C_5  and  C_7 
REMARK    6  A    between atoms: C_9  and  C_10 
REMARK    7  A    between atoms: C_9  and  C_13 
REMARK    8  A    between atoms: C_10  and  C_14 
REMARK    9  A    between atoms: C_11  and  C_12 
REMARK   10  A    between atoms: C_12  and  C_16 
REMARK   11  A    between atoms: C_13  and  C_22 
REMARK   12  A    between atoms: C_15  and  C_17 
REMARK   13  A    between atoms: C_15  and  C_20 
REMARK   14  A    between atoms: C_18  and  C_19 
REMARK   15  A    between atoms: C_18  and  C_21 
ROOT
HETATM    1  O   UNL     1      39.202   6.730 -19.142  1.00  0.00    -0.776 OA
HETATM    2  H   UNL     1      39.330   7.167 -19.996  1.00  0.00     0.167 HD
ENDROOT
BRANCH   1   3
HETATM    3  C   UNL     1      39.560   7.327 -17.986  1.00  0.00     0.139 C 
HETATM    4  O   UNL     1      39.554   6.692 -16.941  1.00  0.00    -0.650 OA
BRANCH   3   5
HETATM    5  C   UNL     1      39.956   8.778 -17.985  1.00  0.00     0.110 C 
BRANCH   5   6
HETATM    6  C   UNL     1      38.744   9.713 -18.110  1.00  0.00     0.014 C 
BRANCH   6   7
HETATM    7  C   UNL     1      38.447  10.472 -16.810  1.00  0.00     0.027 C 
BRANCH   7   8
HETATM    8  C   UNL     1      37.144   9.987 -16.225  1.00  0.00    -0.030 C 
HETATM    9  C   UNL     1      36.985   9.499 -14.981  1.00  0.00    -0.027 C 
BRANCH   9  10
HETATM   10  C   UNL     1      38.074   9.372 -13.946  1.00  0.00     0.053 C 
BRANCH  10  11
HETATM   11  C   UNL     1      38.875   8.105 -14.145  1.00  0.00    -0.027 C 
HETATM   12  C   UNL     1      39.648   7.472 -13.239  1.00  0.00    -0.027 C 
BRANCH  12  13
HETATM   13  C   UNL     1      39.876   7.872 -11.803  1.00  0.00     0.053 C 
BRANCH  13  14
HETATM   14  C   UNL     1      38.958   7.088 -10.896  1.00  0.00    -0.027 C 
HETATM   15  C   UNL     1      38.276   7.603  -9.853  1.00  0.00    -0.027 C 
BRANCH  15  16
HETATM   16  C   UNL     1      38.339   9.045  -9.420  1.00  0.00     0.053 C 
BRANCH  16  17
HETATM   17  C   UNL     1      38.084   9.190  -7.941  1.00  0.00    -0.027 C 
HETATM   18  C   UNL     1      39.057   9.237  -7.014  1.00  0.00    -0.030 C 
BRANCH  18  19
HETATM   19  C   UNL     1      40.532   9.141  -7.309  1.00  0.00     0.027 C 
BRANCH  19  20
HETATM   20  C   UNL     1      41.203  10.488  -7.023  1.00  0.00     0.004 C 
BRANCH  20  21
HETATM   21  C   UNL     1      42.132  10.901  -8.170  1.00  0.00    -0.000 C 
BRANCH  21  22
HETATM   22  C   UNL     1      41.840  10.079  -9.431  1.00  0.00    -0.005 C 
HETATM   23  C   UNL     1      41.428  10.979 -10.592  1.00  0.00     0.005 C 
ENDBRANCH  21  22
ENDBRANCH  20  21
ENDBRANCH  19  20
ENDBRANCH  18  19
ENDBRANCH  16  17
ENDBRANCH  15  16
ENDBRANCH  13  14
ENDBRANCH  12  13
ENDBRANCH  10  11
ENDBRANCH   9  10
ENDBRANCH   7   8
ENDBRANCH   6   7
ENDBRANCH   5   6
ENDBRANCH   3   5
ENDBRANCH   1   3
TORSDOF 15
ENDMDL
MODEL 8
REMARK VINA RESULT:      -4.7      4.489      6.459
REMARK  15 active torsions:
REMARK  status: ('A' for Active; 'I' for Inactive)
REMARK    1  A    between atoms: O_1  and  C_22 
REMARK    2  A    between atoms: C_3  and  C_4 
REMARK    3  A    between atoms: C_3  and  C_5 
REMARK    4  A    between atoms: C_4  and  C_6 
REMARK    5  A    between atoms: C_5  and  C_7 
REMARK    6  A    between atoms: C_9  and  C_10 
REMARK    7  A    between atoms: C_9  and  C_13 
REMARK    8  A    between atoms: C_10  and  C_14 
REMARK    9  A    between atoms: C_11  and  C_12 
REMARK   10  A    between atoms: C_12  and  C_16 
REMARK   11  A    between atoms: C_13  and  C_22 
REMARK   12  A    between atoms: C_15  and  C_17 
REMARK   13  A    between atoms: C_15  and  C_20 
REMARK   14  A    between atoms: C_18  and  C_19 
REMARK   15  A    between atoms: C_18  and  C_21 
ROOT
HETATM    1  O   UNL     1      32.763 -20.294 -18.993  1.00  0.00    -0.776 OA
HETATM    2  H   UNL     1      32.938 -20.317 -18.042  1.00  0.00     0.167 HD
ENDROOT
BRANCH   1   3
HETATM    3  C   UNL     1      31.527 -20.523 -19.487  1.00  0.00     0.139 C 
HETATM    4  O   UNL     1      31.378 -20.770 -20.674  1.00  0.00    -0.650 OA
BRANCH   3   5
HETATM    5  C   UNL     1      30.334 -20.461 -18.573  1.00  0.00     0.110 C 
BRANCH   5   6
HETATM    6  C   UNL     1      30.655 -19.772 -17.239  1.00  0.00     0.014 C 
BRANCH   6   7
HETATM    7  C   UNL     1      30.084 -18.351 -17.154  1.00  0.00     0.027 C 
BRANCH   7   8
HETATM    8  C   UNL     1      30.931 -17.518 -16.225  1.00  0.00    -0.030 C 
HETATM    9  C   UNL     1      30.894 -17.573 -14.881  1.00  0.00    -0.027 C 
BRANCH   9  10
HETATM   10  C   UNL     1      30.019 -18.492 -14.067  1.00  0.00     0.053 C 
BRANCH  10  11
HETATM   11  C   UNL     1      30.843 -19.531 -13.338  1.00  0.00    -0.027 C 
HETATM   12  C   UNL     1      30.891 -19.755 -12.009  1.00  0.00    -0.027 C 
BRANCH  12  13
HETATM   13  C   UNL     1      30.114 -19.033 -10.938  1.00  0.00     0.053 C 
BRANCH  13  14
HETATM   14  C   UNL     1      31.047 -18.184 -10.107  1.00  0.00    -0.027 C 
HETATM   15  C   UNL     1      31.300 -16.877 -10.319  1.00  0.00    -0.027 C 
BRANCH  15  16
HETATM   16  C   UNL     1      30.700 -16.061 -11.434  1.00  0.00     0.053 C 
BRANCH  16  17
HETATM   17  C   UNL     1      29.349 -15.511 -11.052  1.00  0.00    -0.027 C 
HETATM   18  C   UNL     1      28.952 -14.252 -11.309  1.00  0.00    -0.030 C 
BRANCH  18  19
HETATM   19  C   UNL     1      29.793 -13.209 -12.001  1.00  0.00     0.027 C 
BRANCH  19  20
HETATM   20  C   UNL     1      29.225 -12.933 -13.396  1.00  0.00     0.004 C 
BRANCH  20  21
HETATM   21  C   UNL     1      29.679 -13.997 -14.401  1.00  0.00    -0.000 C 
BRANCH  21  22
HETATM   22  C   UNL     1      28.474 -14.721 -15.012  1.00  0.00    -0.005 C 
HETATM   23  C   UNL     1      28.499 -14.646 -16.535  1.00  0.00     0.005 C 
ENDBRANCH  21  22
ENDBRANCH  20  21
ENDBRANCH  19  20
ENDBRANCH  18  19
ENDBRANCH  16  17
ENDBRANCH  15  16
ENDBRANCH  13  14
ENDBRANCH  12  13
ENDBRANCH  10  11
ENDBRANCH   9  10
ENDBRANCH   7   8
ENDBRANCH   6   7
ENDBRANCH   5   6
ENDBRANCH   3   5
ENDBRANCH   1   3
TORSDOF 15
ENDMDL
MODEL 9
REMARK VINA RESULT:      -4.7      2.294      5.406
REMARK  15 active torsions:
REMARK  status: ('A' for Active; 'I' for Inactive)
REMARK    1  A    between atoms: O_1  and  C_22 
REMARK    2  A    between atoms: C_3  and  C_4 
REMARK    3  A    between atoms: C_3  and  C_5 
REMARK    4  A    between atoms: C_4  and  C_6 
REMARK    5  A    between atoms: C_5  and  C_7 
REMARK    6  A    between atoms: C_9  and  C_10 
REMARK    7  A    between atoms: C_9  and  C_13 
REMARK    8  A    between atoms: C_10  and  C_14 
REMARK    9  A    between atoms: C_11  and  C_12 
REMARK   10  A    between atoms: C_12  and  C_16 
REMARK   11  A    between atoms: C_13  and  C_22 
REMARK   12  A    between atoms: C_15  and  C_17 
REMARK   13  A    between atoms: C_15  and  C_20 
REMARK   14  A    between atoms: C_18  and  C_19 
REMARK   15  A    between atoms: C_18  and  C_21 
ROOT
HETATM    1  O   UNL     1      29.867 -21.010  -8.982  1.00  0.00    -0.776 OA
HETATM    2  H   UNL     1      30.142 -21.002  -8.055  1.00  0.00     0.167 HD
ENDROOT
BRANCH   1   3
HETATM    3  C   UNL     1      30.604 -20.407  -9.939  1.00  0.00     0.139 C 
HETATM    4  O   UNL     1      31.394 -21.059 -10.606  1.00  0.00    -0.650 OA
BRANCH   3   5
HETATM    5  C   UNL     1      30.458 -18.929 -10.175  1.00  0.00     0.110 C 
BRANCH   5   6
HETATM    6  C   UNL     1      29.935 -18.189  -8.935  1.00  0.00     0.014 C 
BRANCH   6   7
HETATM    7  C   UNL     1      29.823 -16.674  -9.154  1.00  0.00     0.027 C 
BRANCH   7   8
HETATM    8  C   UNL     1      30.685 -15.951  -8.150  1.00  0.00    -0.030 C 
HETATM    9  C   UNL     1      30.330 -14.838  -7.481  1.00  0.00    -0.027 C 
BRANCH   9  10
HETATM   10  C   UNL     1      29.002 -14.132  -7.600  1.00  0.00     0.053 C 
BRANCH  10  11
HETATM   11  C   UNL     1      29.177 -12.714  -8.095  1.00  0.00    -0.027 C 
HETATM   12  C   UNL     1      29.441 -12.311  -9.355  1.00  0.00    -0.027 C 
BRANCH  12  13
HETATM   13  C   UNL     1      29.605 -13.186 -10.571  1.00  0.00     0.053 C 
BRANCH  13  14
HETATM   14  C   UNL     1      30.749 -12.683 -11.420  1.00  0.00    -0.027 C 
HETATM   15  C   UNL     1      31.808 -13.422 -11.807  1.00  0.00    -0.027 C 
BRANCH  15  16
HETATM   16  C   UNL     1      32.022 -14.866 -11.437  1.00  0.00     0.053 C 
BRANCH  16  17
HETATM   17  C   UNL     1      32.623 -15.647 -12.579  1.00  0.00    -0.027 C 
HETATM   18  C   UNL     1      31.924 -16.486 -13.363  1.00  0.00    -0.030 C 
BRANCH  18  19
HETATM   19  C   UNL     1      30.453 -16.779 -13.213  1.00  0.00     0.027 C 
BRANCH  19  20
HETATM   20  C   UNL     1      30.003 -17.738 -14.319  1.00  0.00     0.004 C 
BRANCH  20  21
HETATM   21  C   UNL     1      29.692 -19.129 -13.756  1.00  0.00    -0.000 C 
BRANCH  21  22
HETATM   22  C   UNL     1      30.887 -20.073 -13.939  1.00  0.00    -0.005 C 
HETATM   23  C   UNL     1      30.988 -20.560 -15.381  1.00  0.00     0.005 C 
ENDBRANCH  21  22
ENDBRANCH  20  21
ENDBRANCH  19  20
ENDBRANCH  18  19
ENDBRANCH  16  17
ENDBRANCH  15  16
ENDBRANCH  13  14
ENDBRANCH  12  13
ENDBRANCH  10  11
ENDBRANCH   9  10
ENDBRANCH   7   8
ENDBRANCH   6   7
ENDBRANCH   5   6
ENDBRANCH   3   5
ENDBRANCH   1   3
TORSDOF 15
ENDMDL
MODEL 10
REMARK VINA RESULT:      -4.7      2.196      3.310
REMARK  15 active torsions:
REMARK  status: ('A' for Active; 'I' for Inactive)
REMARK    1  A    between atoms: O_1  and  C_22 
REMARK    2  A    between atoms: C_3  and  C_4 
REMARK    3  A    between atoms: C_3  and  C_5 
REMARK    4  A    between atoms: C_4  and  C_6 
REMARK    5  A    between atoms: C_5  and  C_7 
REMARK    6  A    between atoms: C_9  and  C_10 
REMARK    7  A    between atoms: C_9  and  C_13 
REMARK    8  A    between atoms: C_10  and  C_14 
REMARK    9  A    between atoms: C_11  and  C_12 
REMARK   10  A    between atoms: C_12  and  C_16 
REMARK   11  A    between atoms: C_13  and  C_22 
REMARK   12  A    between atoms: C_15  and  C_17 
REMARK   13  A    between atoms: C_15  and  C_20 
REMARK   14  A    between atoms: C_18  and  C_19 
REMARK   15  A    between atoms: C_18  and  C_21 
ROOT
HETATM    1  O   UNL     1      32.068 -21.069  -9.728  1.00  0.00    -0.776 OA
HETATM    2  H   UNL     1      32.073 -21.825  -9.126  1.00  0.00     0.167 HD
ENDROOT
BRANCH   1   3
HETATM    3  C   UNL     1      30.927 -20.638 -10.307  1.00  0.00     0.139 C 
HETATM    4  O   UNL     1      30.747 -20.802 -11.505  1.00  0.00    -0.650 OA
BRANCH   3   5
HETATM    5  C   UNL     1      29.883 -19.944  -9.475  1.00  0.00     0.110 C 
BRANCH   5   6
HETATM    6  C   UNL     1      30.499 -19.063  -8.380  1.00  0.00     0.014 C 
BRANCH   6   7
HETATM    7  C   UNL     1      31.144 -17.788  -8.940  1.00  0.00     0.027 C 
BRANCH   7   8
HETATM    8  C   UNL     1      30.072 -16.866  -9.465  1.00  0.00    -0.030 C 
HETATM    9  C   UNL     1      29.990 -16.411 -10.730  1.00  0.00    -0.027 C 
BRANCH   9  10
HETATM   10  C   UNL     1      30.940 -16.762 -11.848  1.00  0.00     0.053 C 
BRANCH  10  11
HETATM   11  C   UNL     1      30.273 -17.651 -12.875  1.00  0.00    -0.027 C 
HETATM   12  C   UNL     1      29.902 -17.320 -14.129  1.00  0.00    -0.027 C 
BRANCH  12  13
HETATM   13  C   UNL     1      30.085 -15.987 -14.808  1.00  0.00     0.053 C 
BRANCH  13  14
HETATM   14  C   UNL     1      28.750 -15.297 -14.962  1.00  0.00    -0.027 C 
HETATM   15  C   UNL     1      28.303 -14.291 -14.182  1.00  0.00    -0.027 C 
BRANCH  15  16
HETATM   16  C   UNL     1      29.066 -13.709 -13.021  1.00  0.00     0.053 C 
BRANCH  16  17
HETATM   17  C   UNL     1      30.068 -12.679 -13.479  1.00  0.00    -0.027 C 
HETATM   18  C   UNL     1      31.177 -12.354 -12.791  1.00  0.00    -0.030 C 
BRANCH  18  19
HETATM   19  C   UNL     1      31.575 -12.956 -11.467  1.00  0.00     0.027 C 
BRANCH  19  20
HETATM   20  C   UNL     1      31.441 -11.904 -10.362  1.00  0.00     0.004 C 
BRANCH  20  21
HETATM   21  C   UNL     1      29.994 -11.799  -9.869  1.00  0.00    -0.000 C 
BRANCH  21  22
HETATM   22  C   UNL     1      29.537 -13.117  -9.231  1.00  0.00    -0.005 C 
HETATM   23  C   UNL     1      28.949 -12.883  -7.843  1.00  0.00     0.005 C 
ENDBRANCH  21  22
ENDBRANCH  20  21
ENDBRANCH  19  20
ENDBRANCH  18  19
ENDBRANCH  16  17
ENDBRANCH  15  16
ENDBRANCH  13  14
ENDBRANCH  12  13
ENDBRANCH  10  11
ENDBRANCH   9  10
ENDBRANCH   7   8
ENDBRANCH   6   7
ENDBRANCH   5   6
ENDBRANCH   3   5
ENDBRANCH   1   3
TORSDOF 15
ENDMDL
MODEL 11
REMARK VINA RESULT:      -4.7      2.304      3.832
REMARK  15 active torsions:
REMARK  status: ('A' for Active; 'I' for Inactive)
REMARK    1  A    between atoms: O_1  and  C_22 
REMARK    2  A    between atoms: C_3  and  C_4 
REMARK    3  A    between atoms: C_3  and  C_5 
REMARK    4  A    between atoms: C_4  and  C_6 
REMARK    5  A    between atoms: C_5  and  C_7 
REMARK    6  A    between atoms: C_9  and  C_10 
REMARK    7  A    between atoms: C_9  and  C_13 
REMARK    8  A    between atoms: C_10  and  C_14 
REMARK    9  A    between atoms: C_11  and  C_12 
REMARK   10  A    between atoms: C_12  and  C_16 
REMARK   11  A    between atoms: C_13  and  C_22 
REMARK   12  A    between atoms: C_15  and  C_17 
REMARK   13  A    between atoms: C_15  and  C_20 
REMARK   14  A    between atoms: C_18  and  C_19 
REMARK   15  A    between atoms: C_18  and  C_21 
ROOT
HETATM    1  O   UNL     1      32.094 -20.636  -5.628  1.00  0.00    -0.776 OA
HETATM    2  H   UNL     1      32.965 -20.970  -5.371  1.00  0.00     0.167 HD
ENDROOT
BRANCH   1   3
HETATM    3  C   UNL     1      31.304 -19.984  -4.749  1.00  0.00     0.139 C 
HETATM    4  O   UNL     1      31.443 -20.166  -3.548  1.00  0.00    -0.650 OA
BRANCH   3   5
HETATM    5  C   UNL     1      30.244 -19.043  -5.252  1.00  0.00     0.110 C 
BRANCH   5   6
HETATM    6  C   UNL     1      30.836 -17.849  -6.013  1.00  0.00     0.014 C 
BRANCH   6   7
HETATM    7  C   UNL     1      30.659 -17.970  -7.532  1.00  0.00     0.027 C 
BRANCH   7   8
HETATM    8  C   UNL     1      29.857 -19.206  -7.854  1.00  0.00    -0.030 C 
HETATM    9  C   UNL     1      30.223 -20.164  -8.726  1.00  0.00    -0.027 C 
BRANCH   9  10
HETATM   10  C   UNL     1      31.508 -20.183  -9.515  1.00  0.00     0.053 C 
BRANCH  10  11
HETATM   11  C   UNL     1      31.259 -20.569 -10.957  1.00  0.00    -0.027 C 
HETATM   12  C   UNL     1      30.773 -19.789 -11.943  1.00  0.00    -0.027 C 
BRANCH  12  13
HETATM   13  C   UNL     1      30.381 -18.337 -11.842  1.00  0.00     0.053 C 
BRANCH  13  14
HETATM   14  C   UNL     1      30.036 -17.798 -13.210  1.00  0.00    -0.027 C 
HETATM   15  C   UNL     1      29.980 -16.490 -13.535  1.00  0.00    -0.027 C 
BRANCH  15  16
HETATM   16  C   UNL     1      30.239 -15.360 -12.573  1.00  0.00     0.053 C 
BRANCH  16  17
HETATM   17  C   UNL     1      28.954 -14.707 -12.129  1.00  0.00    -0.027 C 
HETATM   18  C   UNL     1      28.463 -14.791 -10.880  1.00  0.00    -0.030 C 
BRANCH  18  19
HETATM   19  C   UNL     1      29.110 -15.553  -9.751  1.00  0.00     0.027 C 
BRANCH  19  20
HETATM   20  C   UNL     1      29.306 -14.624  -8.549  1.00  0.00     0.004 C 
BRANCH  20  21
HETATM   21  C   UNL     1      27.976 -14.012  -8.097  1.00  0.00    -0.000 C 
BRANCH  21  22
HETATM   22  C   UNL     1      27.751 -14.238  -6.597  1.00  0.00    -0.005 C 
HETATM   23  C   UNL     1      27.703 -12.914  -5.842  1.00  0.00     0.005 C 
ENDBRANCH  21  22
ENDBRANCH  20  21
ENDBRANCH  19  20
ENDBRANCH  18  19
ENDBRANCH  16  17
ENDBRANCH  15  16
ENDBRANCH  13  14
ENDBRANCH  12  13
ENDBRANCH  10  11
ENDBRANCH   9  10
ENDBRANCH   7   8
ENDBRANCH   6   7
ENDBRANCH   5   6
ENDBRANCH   3   5
ENDBRANCH   1   3
TORSDOF 15
ENDMDL
MODEL 12
REMARK VINA RESULT:      -4.7     26.842     29.147
REMARK  15 active torsions:
REMARK  status: ('A' for Active; 'I' for Inactive)
REMARK    1  A    between atoms: O_1  and  C_22 
REMARK    2  A    between atoms: C_3  and  C_4 
REMARK    3  A    between atoms: C_3  and  C_5 
REMARK    4  A    between atoms: C_4  and  C_6 
REMARK    5  A    between atoms: C_5  and  C_7 
REMARK    6  A    between atoms: C_9  and  C_10 
REMARK    7  A    between atoms: C_9  and  C_13 
REMARK    8  A    between atoms: C_10  and  C_14 
REMARK    9  A    between atoms: C_11  and  C_12 
REMARK   10  A    between atoms: C_12  and  C_16 
REMARK   11  A    between atoms: C_13  and  C_22 
REMARK   12  A    between atoms: C_15  and  C_17 
REMARK   13  A    between atoms: C_15  and  C_20 
REMARK   14  A    between atoms: C_18  and  C_19 
REMARK   15  A    between atoms: C_18  and  C_21 
ROOT
HETATM    1  O   UNL     1      40.680  10.847 -22.120  1.00  0.00    -0.776 OA
HETATM    2  H   UNL     1      41.145  11.510 -22.649  1.00  0.00     0.167 HD
ENDROOT
BRANCH   1   3
HETATM    3  C   UNL     1      39.720  10.065 -22.659  1.00  0.00     0.139 C 
HETATM    4  O   UNL     1      39.940   9.449 -23.692  1.00  0.00    -0.650 OA
BRANCH   3   5
HETATM    5  C   UNL     1      38.376   9.964 -21.991  1.00  0.00     0.110 C 
BRANCH   5   6
HETATM    6  C   UNL     1      38.142   8.585 -21.357  1.00  0.00     0.014 C 
BRANCH   6   7
HETATM    7  C   UNL     1      38.113   8.637 -19.824  1.00  0.00     0.027 C 
BRANCH   7   8
HETATM    8  C   UNL     1      39.071   7.616 -19.263  1.00  0.00    -0.030 C 
HETATM    9  C   UNL     1      40.380   7.827 -19.026  1.00  0.00    -0.027 C 
BRANCH   9  10
HETATM   10  C   UNL     1      41.112   9.125 -19.255  1.00  0.00     0.053 C 
BRANCH  10  11
HETATM   11  C   UNL     1      41.546   9.749 -17.947  1.00  0.00    -0.027 C 
HETATM   12  C   UNL     1      40.908  10.706 -17.243  1.00  0.00    -0.027 C 
BRANCH  12  13
HETATM   13  C   UNL     1      39.598  11.366 -17.590  1.00  0.00     0.053 C 
BRANCH  13  14
HETATM   14  C   UNL     1      38.789  11.598 -16.335  1.00  0.00    -0.027 C 
HETATM   15  C   UNL     1      37.907  10.723 -15.810  1.00  0.00    -0.027 C 
BRANCH  15  16
HETATM   16  C   UNL     1      37.580   9.379 -16.407  1.00  0.00     0.053 C 
BRANCH  16  17
HETATM   17  C   UNL     1      37.439   8.320 -15.341  1.00  0.00    -0.027 C 
HETATM   18  C   UNL     1      38.449   7.537 -14.924  1.00  0.00    -0.030 C 
BRANCH  18  19
HETATM   19  C   UNL     1      39.857   7.589 -15.462  1.00  0.00     0.027 C 
BRANCH  19  20
HETATM   20  C   UNL     1      40.831   7.905 -14.323  1.00  0.00     0.004 C 
BRANCH  20  21
HETATM   21  C   UNL     1      40.693   9.361 -13.863  1.00  0.00    -0.000 C 
BRANCH  21  22
HETATM   22  C   UNL     1      40.347   9.431 -12.371  1.00  0.00    -0.005 C 
HETATM   23  C   UNL     1      38.893   9.843 -12.162  1.00  0.00     0.005 C 
ENDBRANCH  21  22
ENDBRANCH  20  21
ENDBRANCH  19  20
ENDBRANCH  18  19
ENDBRANCH  16  17
ENDBRANCH  15  16
ENDBRANCH  13  14
ENDBRANCH  12  13
ENDBRANCH  10  11
ENDBRANCH   9  10
ENDBRANCH   7   8
ENDBRANCH   6   7
ENDBRANCH   5   6
ENDBRANCH   3   5
ENDBRANCH   1   3
TORSDOF 15
ENDMDL
MODEL 13
REMARK VINA RESULT:      -4.7      3.243      4.699
REMARK  15 active torsions:
REMARK  status: ('A' for Active; 'I' for Inactive)
REMARK    1  A    between atoms: O_1  and  C_22 
REMARK    2  A    between atoms: C_3  and  C_4 
REMARK    3  A    between atoms: C_3  and  C_5 
REMARK    4  A    between atoms: C_4  and  C_6 
REMARK    5  A    between atoms: C_5  and  C_7 
REMARK    6  A    between atoms: C_9  and  C_10 
REMARK    7  A    between atoms: C_9  and  C_13 
REMARK    8  A    between atoms: C_10  and  C_14 
REMARK    9  A    between atoms: C_11  and  C_12 
REMARK   10  A    between atoms: C_12  and  C_16 
REMARK   11  A    between atoms: C_13  and  C_22 
REMARK   12  A    between atoms: C_15  and  C_17 
REMARK   13  A    between atoms: C_15  and  C_20 
REMARK   14  A    between atoms: C_18  and  C_19 
REMARK   15  A    between atoms: C_18  and  C_21 
ROOT
HETATM    1  O   UNL     1      31.632 -21.156 -14.996  1.00  0.00    -0.776 OA
HETATM    2  H   UNL     1      31.356 -21.189 -14.069  1.00  0.00     0.167 HD
ENDROOT
BRANCH   1   3
HETATM    3  C   UNL     1      31.053 -20.308 -15.872  1.00  0.00     0.139 C 
HETATM    4  O   UNL     1      31.129 -20.522 -17.073  1.00  0.00    -0.650 OA
BRANCH   3   5
HETATM    5  C   UNL     1      30.325 -19.093 -15.366  1.00  0.00     0.110 C 
BRANCH   5   6
HETATM    6  C   UNL     1      29.938 -19.218 -13.886  1.00  0.00     0.014 C 
BRANCH   6   7
HETATM    7  C   UNL     1      30.931 -18.513 -12.953  1.00  0.00     0.027 C 
BRANCH   7   8
HETATM    8  C   UNL     1      30.329 -18.382 -11.576  1.00  0.00    -0.030 C 
HETATM    9  C   UNL     1      30.169 -17.225 -10.906  1.00  0.00    -0.027 C 
BRANCH   9  10
HETATM   10  C   UNL     1      30.540 -15.857 -11.422  1.00  0.00     0.053 C 
BRANCH  10  11
HETATM   11  C   UNL     1      32.035 -15.636 -11.363  1.00  0.00    -0.027 C 
HETATM   12  C   UNL     1      32.808 -15.009 -12.273  1.00  0.00    -0.027 C 
BRANCH  12  13
HETATM   13  C   UNL     1      32.355 -14.362 -13.557  1.00  0.00     0.053 C 
BRANCH  13  14
HETATM   14  C   UNL     1      32.092 -15.418 -14.604  1.00  0.00    -0.027 C 
HETATM   15  C   UNL     1      31.616 -15.178 -15.843  1.00  0.00    -0.027 C 
BRANCH  15  16
HETATM   16  C   UNL     1      31.256 -13.813 -16.369  1.00  0.00     0.053 C 
BRANCH  16  17
HETATM   17  C   UNL     1      29.779 -13.701 -16.651  1.00  0.00    -0.027 C 
HETATM   18  C   UNL     1      28.919 -13.011 -15.881  1.00  0.00    -0.030 C 
BRANCH  18  19
HETATM   19  C   UNL     1      29.297 -12.264 -14.627  1.00  0.00     0.027 C 
BRANCH  19  20
HETATM   20  C   UNL     1      28.940 -13.106 -13.398  1.00  0.00     0.004 C 
BRANCH  20  21
HETATM   21  C   UNL     1      29.423 -12.437 -12.107  1.00  0.00    -0.000 C 
BRANCH  21  22
HETATM   22  C   UNL     1      28.482 -12.758 -10.940  1.00  0.00    -0.005 C 
HETATM   23  C   UNL     1      27.321 -13.637 -11.394  1.00  0.00     0.005 C 
ENDBRANCH  21  22
ENDBRANCH  20  21
ENDBRANCH  19  20
ENDBRANCH  18  19
ENDBRANCH  16  17
ENDBRANCH  15  16
ENDBRANCH  13  14
ENDBRANCH  12  13
ENDBRANCH  10  11
ENDBRANCH   9  10
ENDBRANCH   7   8
ENDBRANCH   6   7
ENDBRANCH   5   6
ENDBRANCH   3   5
ENDBRANCH   1   3
TORSDOF 15
ENDMDL
MODEL 14
REMARK VINA RESULT:      -4.7      3.497      5.585
REMARK  15 active torsions:
REMARK  status: ('A' for Active; 'I' for Inactive)
REMARK    1  A    between atoms: O_1  and  C_22 
REMARK    2  A    between atoms: C_3  and  C_4 
REMARK    3  A    between atoms: C_3  and  C_5 
REMARK    4  A    between atoms: C_4  and  C_6 
REMARK    5  A    between atoms: C_5  and  C_7 
REMARK    6  A    between atoms: C_9  and  C_10 
REMARK    7  A    between atoms: C_9  and  C_13 
REMARK    8  A    between atoms: C_10  and  C_14 
REMARK    9  A    between atoms: C_11  and  C_12 
REMARK   10  A    between atoms: C_12  and  C_16 
REMARK   11  A    between atoms: C_13  and  C_22 
REMARK   12  A    between atoms: C_15  and  C_17 
REMARK   13  A    between atoms: C_15  and  C_20 
REMARK   14  A    between atoms: C_18  and  C_19 
REMARK   15  A    between atoms: C_18  and  C_21 
ROOT
HETATM    1  O   UNL     1      29.889 -21.103 -13.891  1.00  0.00    -0.776 OA
HETATM    2  H   UNL     1      30.181 -21.686 -13.177  1.00  0.00     0.167 HD
ENDROOT
BRANCH   1   3
HETATM    3  C   UNL     1      30.775 -20.471 -14.690  1.00  0.00     0.139 C 
HETATM    4  O   UNL     1      31.247 -21.049 -15.659  1.00  0.00    -0.650 OA
BRANCH   3   5
HETATM    5  C   UNL     1      31.189 -19.059 -14.379  1.00  0.00     0.110 C 
BRANCH   5   6
HETATM    6  C   UNL     1      30.009 -18.195 -13.910  1.00  0.00     0.014 C 
BRANCH   6   7
HETATM    7  C   UNL     1      30.451 -16.817 -13.402  1.00  0.00     0.027 C 
BRANCH   7   8
HETATM    8  C   UNL     1      29.563 -15.749 -13.991  1.00  0.00    -0.030 C 
HETATM    9  C   UNL     1      28.829 -14.871 -13.282  1.00  0.00    -0.027 C 
BRANCH   9  10
HETATM   10  C   UNL     1      28.784 -14.783 -11.778  1.00  0.00     0.053 C 
BRANCH  10  11
HETATM   11  C   UNL     1      27.621 -13.935 -11.313  1.00  0.00    -0.027 C 
HETATM   12  C   UNL     1      27.669 -12.697 -10.779  1.00  0.00    -0.027 C 
BRANCH  12  13
HETATM   13  C   UNL     1      28.900 -11.860 -10.540  1.00  0.00     0.053 C 
BRANCH  13  14
HETATM   14  C   UNL     1      29.570 -12.281  -9.253  1.00  0.00    -0.027 C 
HETATM   15  C   UNL     1      30.902 -12.296  -9.043  1.00  0.00    -0.027 C 
BRANCH  15  16
HETATM   16  C   UNL     1      31.932 -11.909 -10.072  1.00  0.00     0.053 C 
BRANCH  16  17
HETATM   17  C   UNL     1      32.373 -13.099 -10.887  1.00  0.00    -0.027 C 
HETATM   18  C   UNL     1      32.140 -13.234 -12.205  1.00  0.00    -0.030 C 
BRANCH  18  19
HETATM   19  C   UNL     1      31.401 -12.231 -13.054  1.00  0.00     0.027 C 
BRANCH  19  20
HETATM   20  C   UNL     1      31.944 -12.269 -14.486  1.00  0.00     0.004 C 
BRANCH  20  21
HETATM   21  C   UNL     1      30.946 -11.657 -15.474  1.00  0.00    -0.000 C 
BRANCH  21  22
HETATM   22  C   UNL     1      29.520 -11.704 -14.911  1.00  0.00    -0.005 C 
HETATM   23  C   UNL     1      28.544 -12.284 -15.929  1.00  0.00     0.005 C 
ENDBRANCH  21  22
ENDBRANCH  20  21
ENDBRANCH  19  20
ENDBRANCH  18  19
ENDBRANCH  16  17
ENDBRANCH  15  16
ENDBRANCH  13  14
ENDBRANCH  12  13
ENDBRANCH  10  11
ENDBRANCH   9  10
ENDBRANCH   7   8
ENDBRANCH   6   7
ENDBRANCH   5   6
ENDBRANCH   3   5
ENDBRANCH   1   3
TORSDOF 15
ENDMDL
MODEL 15
REMARK VINA RESULT:      -4.7      3.238      5.080
REMARK  15 active torsions:
REMARK  status: ('A' for Active; 'I' for Inactive)
REMARK    1  A    between atoms: O_1  and  C_22 
REMARK    2  A    between atoms: C_3  and  C_4 
REMARK    3  A    between atoms: C_3  and  C_5 
REMARK    4  A    between atoms: C_4  and  C_6 
REMARK    5  A    between atoms: C_5  and  C_7 
REMARK    6  A    between atoms: C_9  and  C_10 
REMARK    7  A    between atoms: C_9  and  C_13 
REMARK    8  A    between atoms: C_10  and  C_14 
REMARK    9  A    between atoms: C_11  and  C_12 
REMARK   10  A    between atoms: C_12  and  C_16 
REMARK   11  A    between atoms: C_13  and  C_22 
REMARK   12  A    between atoms: C_15  and  C_17 
REMARK   13  A    between atoms: C_15  and  C_20 
REMARK   14  A    between atoms: C_18  and  C_19 
REMARK   15  A    between atoms: C_18  and  C_21 
ROOT
HETATM    1  O   UNL     1      32.686 -20.261  -9.309  1.00  0.00    -0.776 OA
HETATM    2  H   UNL     1      33.264 -19.660  -9.800  1.00  0.00     0.167 HD
ENDROOT
BRANCH   1   3
HETATM    3  C   UNL     1      31.388 -20.420  -9.646  1.00  0.00     0.139 C 
HETATM    4  O   UNL     1      31.091 -20.934 -10.714  1.00  0.00    -0.650 OA
BRANCH   3   5
HETATM    5  C   UNL     1      30.310 -19.952  -8.708  1.00  0.00     0.110 C 
BRANCH   5   6
HETATM    6  C   UNL     1      29.844 -18.523  -9.019  1.00  0.00     0.014 C 
BRANCH   6   7
HETATM    7  C   UNL     1      30.577 -17.466  -8.182  1.00  0.00     0.027 C 
BRANCH   7   8
HETATM    8  C   UNL     1      31.618 -16.779  -9.029  1.00  0.00    -0.030 C 
HETATM    9  C   UNL     1      32.184 -15.590  -8.750  1.00  0.00    -0.027 C 
BRANCH   9  10
HETATM   10  C   UNL     1      31.897 -14.749  -7.532  1.00  0.00     0.053 C 
BRANCH  10  11
HETATM   11  C   UNL     1      32.661 -13.444  -7.575  1.00  0.00    -0.027 C 
HETATM   12  C   UNL     1      32.319 -12.313  -8.226  1.00  0.00    -0.027 C 
BRANCH  12  13
HETATM   13  C   UNL     1      31.078 -12.081  -9.050  1.00  0.00     0.053 C 
BRANCH  13  14
HETATM   14  C   UNL     1      31.455 -11.566 -10.419  1.00  0.00    -0.027 C 
HETATM   15  C   UNL     1      31.379 -12.279 -11.561  1.00  0.00    -0.027 C 
BRANCH  15  16
HETATM   16  C   UNL     1      30.919 -13.711 -11.645  1.00  0.00     0.053 C 
BRANCH  16  17
HETATM   17  C   UNL     1      29.524 -13.811 -12.211  1.00  0.00    -0.027 C 
HETATM   18  C   UNL     1      28.486 -14.359 -11.555  1.00  0.00    -0.030 C 
BRANCH  18  19
HETATM   19  C   UNL     1      28.562 -14.960 -10.174  1.00  0.00     0.027 C 
BRANCH  19  20
HETATM   20  C   UNL     1      28.044 -13.951  -9.144  1.00  0.00     0.004 C 
BRANCH  20  21
HETATM   21  C   UNL     1      28.414 -14.374  -7.718  1.00  0.00    -0.000 C 
BRANCH  21  22
HETATM   22  C   UNL     1      28.472 -13.158  -6.785  1.00  0.00    -0.005 C 
HETATM   23  C   UNL     1      27.420 -13.258  -5.685  1.00  0.00     0.005 C 
ENDBRANCH  21  22
ENDBRANCH  20  21
ENDBRANCH  19  20
ENDBRANCH  18  19
ENDBRANCH  16  17
ENDBRANCH  15  16
ENDBRANCH  13  14
ENDBRANCH  12  13
ENDBRANCH  10  11
ENDBRANCH   9  10
ENDBRANCH   7   8
ENDBRANCH   6   7
ENDBRANCH   5   6
ENDBRANCH   3   5
ENDBRANCH   1   3
TORSDOF 15
ENDMDL
MODEL 16
REMARK VINA RESULT:      -4.7      2.892      4.496
REMARK  15 active torsions:
REMARK  status: ('A' for Active; 'I' for Inactive)
REMARK    1  A    between atoms: O_1  and  C_22 
REMARK    2  A    between atoms: C_3  and  C_4 
REMARK    3  A    between atoms: C_3  and  C_5 
REMARK    4  A    between atoms: C_4  and  C_6 
REMARK    5  A    between atoms: C_5  and  C_7 
REMARK    6  A    between atoms: C_9  and  C_10 
REMARK    7  A    between atoms: C_9  and  C_13 
REMARK    8  A    between atoms: C_10  and  C_14 
REMARK    9  A    between atoms: C_11  and  C_12 
REMARK   10  A    between atoms: C_12  and  C_16 
REMARK   11  A    between atoms: C_13  and  C_22 
REMARK   12  A    between atoms: C_15  and  C_17 
REMARK   13  A    between atoms: C_15  and  C_20 
REMARK   14  A    between atoms: C_18  and  C_19 
REMARK   15  A    between atoms: C_18  and  C_21 
ROOT
HETATM    1  O   UNL     1      30.440 -20.863 -13.427  1.00  0.00    -0.776 OA
HETATM    2  H   UNL     1      30.319 -21.630 -12.851  1.00  0.00     0.167 HD
ENDROOT
BRANCH   1   3
HETATM    3  C   UNL     1      30.209 -19.608 -12.986  1.00  0.00     0.139 C 
HETATM    4  O   UNL     1      29.642 -18.800 -13.706  1.00  0.00    -0.650 OA
BRANCH   3   5
HETATM    5  C   UNL     1      30.662 -19.205 -11.609  1.00  0.00     0.110 C 
BRANCH   5   6
HETATM    6  C   UNL     1      31.098 -20.409 -10.762  1.00  0.00     0.014 C 
BRANCH   6   7
HETATM    7  C   UNL     1      31.666 -19.998  -9.398  1.00  0.00     0.027 C 
BRANCH   7   8
HETATM    8  C   UNL     1      30.643 -20.262  -8.321  1.00  0.00    -0.030 C 
HETATM    9  C   UNL     1      30.269 -19.382  -7.373  1.00  0.00    -0.027 C 
BRANCH   9  10
HETATM   10  C   UNL     1      30.786 -17.973  -7.235  1.00  0.00     0.053 C 
BRANCH  10  11
HETATM   11  C   UNL     1      29.963 -17.004  -8.057  1.00  0.00    -0.027 C 
HETATM   12  C   UNL     1      30.367 -16.287  -9.125  1.00  0.00    -0.027 C 
BRANCH  12  13
HETATM   13  C   UNL     1      31.732 -16.299  -9.763  1.00  0.00     0.053 C 
BRANCH  13  14
HETATM   14  C   UNL     1      32.307 -14.902  -9.782  1.00  0.00    -0.027 C 
HETATM   15  C   UNL     1      32.183 -14.028 -10.801  1.00  0.00    -0.027 C 
BRANCH  15  16
HETATM   16  C   UNL     1      31.463 -14.318 -12.092  1.00  0.00     0.053 C 
BRANCH  16  17
HETATM   17  C   UNL     1      31.152 -13.051 -12.849  1.00  0.00    -0.027 C 
HETATM   18  C   UNL     1      29.946 -12.456 -12.852  1.00  0.00    -0.030 C 
BRANCH  18  19
HETATM   19  C   UNL     1      28.733 -12.968 -12.117  1.00  0.00     0.027 C 
BRANCH  19  20
HETATM   20  C   UNL     1      28.562 -12.195 -10.806  1.00  0.00     0.004 C 
BRANCH  20  21
HETATM   21  C   UNL     1      28.760 -13.110  -9.593  1.00  0.00    -0.000 C 
BRANCH  21  22
HETATM   22  C   UNL     1      29.717 -12.473  -8.578  1.00  0.00    -0.005 C 
HETATM   23  C   UNL     1      29.435 -12.973  -7.165  1.00  0.00     0.005 C 
ENDBRANCH  21  22
ENDBRANCH  20  21
ENDBRANCH  19  20
ENDBRANCH  18  19
ENDBRANCH  16  17
ENDBRANCH  15  16
ENDBRANCH  13  14
ENDBRANCH  12  13
ENDBRANCH  10  11
ENDBRANCH   9  10
ENDBRANCH   7   8
ENDBRANCH   6   7
ENDBRANCH   5   6
ENDBRANCH   3   5
ENDBRANCH   1   3
TORSDOF 15
ENDMDL
MODEL 17
REMARK VINA RESULT:      -4.7      1.959      3.339
REMARK  15 active torsions:
REMARK  status: ('A' for Active; 'I' for Inactive)
REMARK    1  A    between atoms: O_1  and  C_22 
REMARK    2  A    between atoms: C_3  and  C_4 
REMARK    3  A    between atoms: C_3  and  C_5 
REMARK    4  A    between atoms: C_4  and  C_6 
REMARK    5  A    between atoms: C_5  and  C_7 
REMARK    6  A    between atoms: C_9  and  C_10 
REMARK    7  A    between atoms: C_9  and  C_13 
REMARK    8  A    between atoms: C_10  and  C_14 
REMARK    9  A    between atoms: C_11  and  C_12 
REMARK   10  A    between atoms: C_12  and  C_16 
REMARK   11  A    between atoms: C_13  and  C_22 
REMARK   12  A    between atoms: C_15  and  C_17 
REMARK   13  A    between atoms: C_15  and  C_20 
REMARK   14  A    between atoms: C_18  and  C_19 
REMARK   15  A    between atoms: C_18  and  C_21 
ROOT
HETATM    1  O   UNL     1      31.008 -18.552  -6.983  1.00  0.00    -0.776 OA
HETATM    2  H   UNL     1      30.535 -18.157  -6.237  1.00  0.00     0.167 HD
ENDROOT
BRANCH   1   3
HETATM    3  C   UNL     1      30.898 -19.867  -7.268  1.00  0.00     0.139 C 
HETATM    4  O   UNL     1      31.172 -20.703  -6.419  1.00  0.00    -0.650 OA
BRANCH   3   5
HETATM    5  C   UNL     1      30.449 -20.300  -8.636  1.00  0.00     0.110 C 
BRANCH   5   6
HETATM    6  C   UNL     1      29.796 -19.156  -9.426  1.00  0.00     0.014 C 
BRANCH   6   7
HETATM    7  C   UNL     1      30.580 -18.790 -10.692  1.00  0.00     0.027 C 
BRANCH   7   8
HETATM    8  C   UNL     1      30.929 -20.043 -11.455  1.00  0.00    -0.030 C 
HETATM    9  C   UNL     1      30.653 -20.264 -12.754  1.00  0.00    -0.027 C 
BRANCH   9  10
HETATM   10  C   UNL     1      29.970 -19.290 -13.680  1.00  0.00     0.053 C 
BRANCH  10  11
HETATM   11  C   UNL     1      30.968 -18.355 -14.326  1.00  0.00    -0.027 C 
HETATM   12  C   UNL     1      30.839 -17.028 -14.526  1.00  0.00    -0.027 C 
BRANCH  12  13
HETATM   13  C   UNL     1      29.670 -16.160 -14.131  1.00  0.00     0.053 C 
BRANCH  13  14
HETATM   14  C   UNL     1      29.827 -15.702 -12.700  1.00  0.00    -0.027 C 
HETATM   15  C   UNL     1      29.316 -14.561 -12.193  1.00  0.00    -0.027 C 
BRANCH  15  16
HETATM   16  C   UNL     1      28.521 -13.556 -12.985  1.00  0.00     0.053 C 
BRANCH  16  17
HETATM   17  C   UNL     1      29.379 -12.398 -13.428  1.00  0.00    -0.027 C 
HETATM   18  C   UNL     1      29.490 -11.992 -14.705  1.00  0.00    -0.030 C 
BRANCH  18  19
HETATM   19  C   UNL     1      28.790 -12.635 -15.875  1.00  0.00     0.027 C 
BRANCH  19  20
HETATM   20  C   UNL     1      29.824 -13.065 -16.921  1.00  0.00     0.004 C 
BRANCH  20  21
HETATM   21  C   UNL     1      29.169 -13.293 -18.288  1.00  0.00    -0.000 C 
BRANCH  21  22
HETATM   22  C   UNL     1      29.576 -12.195 -19.278  1.00  0.00    -0.005 C 
HETATM   23  C   UNL     1      31.088 -11.993 -19.286  1.00  0.00     0.005 C 
ENDBRANCH  21  22
ENDBRANCH  20  21
ENDBRANCH  19  20
ENDBRANCH  18  19
ENDBRANCH  16  17
ENDBRANCH  15  16
ENDBRANCH  13  14
ENDBRANCH  12  13
ENDBRANCH  10  11
ENDBRANCH   9  10
ENDBRANCH   7   8
ENDBRANCH   6   7
ENDBRANCH   5   6
ENDBRANCH   3   5
ENDBRANCH   1   3
TORSDOF 15
ENDMDL
MODEL 18
REMARK VINA RESULT:      -4.6     25.917     28.714
REMARK  15 active torsions:
REMARK  status: ('A' for Active; 'I' for Inactive)
REMARK    1  A    between atoms: O_1  and  C_22 
REMARK    2  A    between atoms: C_3  and  C_4 
REMARK    3  A    between atoms: C_3  and  C_5 
REMARK    4  A    between atoms: C_4  and  C_6 
REMARK    5  A    between atoms: C_5  and  C_7 
REMARK    6  A    between atoms: C_9  and  C_10 
REMARK    7  A    between atoms: C_9  and  C_13 
REMARK    8  A    between atoms: C_10  and  C_14 
REMARK    9  A    between atoms: C_11  and  C_12 
REMARK   10  A    between atoms: C_12  and  C_16 
REMARK   11  A    between atoms: C_13  and  C_22 
REMARK   12  A    between atoms: C_15  and  C_17 
REMARK   13  A    between atoms: C_15  and  C_20 
REMARK   14  A    between atoms: C_18  and  C_19 
REMARK   15  A    between atoms: C_18  and  C_21 
ROOT
HETATM    1  O   UNL     1      39.961   8.809 -16.759  1.00  0.00    -0.776 OA
HETATM    2  H   UNL     1      40.686   9.321 -16.376  1.00  0.00     0.167 HD
ENDROOT
BRANCH   1   3
HETATM    3  C   UNL     1      39.400   7.777 -16.094  1.00  0.00     0.139 C 
HETATM    4  O   UNL     1      39.577   6.630 -16.479  1.00  0.00    -0.650 OA
BRANCH   3   5
HETATM    5  C   UNL     1      38.547   8.043 -14.884  1.00  0.00     0.110 C 
BRANCH   5   6
HETATM    6  C   UNL     1      39.105   9.179 -14.015  1.00  0.00     0.014 C 
BRANCH   6   7
HETATM    7  C   UNL     1      40.499   8.866 -13.455  1.00  0.00     0.027 C 
BRANCH   7   8
HETATM    8  C   UNL     1      41.445   9.990 -13.792  1.00  0.00    -0.030 C 
HETATM    9  C   UNL     1      41.957  10.866 -12.907  1.00  0.00    -0.027 C 
BRANCH   9  10
HETATM   10  C   UNL     1      41.694  10.863 -11.422  1.00  0.00     0.053 C 
BRANCH  10  11
HETATM   11  C   UNL     1      41.163  12.201 -10.957  1.00  0.00    -0.027 C 
HETATM   12  C   UNL     1      39.873  12.587 -10.868  1.00  0.00    -0.027 C 
BRANCH  12  13
HETATM   13  C   UNL     1      38.655  11.762 -11.196  1.00  0.00     0.053 C 
BRANCH  13  14
HETATM   14  C   UNL     1      38.065  11.186  -9.930  1.00  0.00    -0.027 C 
HETATM   15  C   UNL     1      37.616   9.922  -9.791  1.00  0.00    -0.027 C 
BRANCH  15  16
HETATM   16  C   UNL     1      37.620   8.889 -10.887  1.00  0.00     0.053 C 
BRANCH  16  17
HETATM   17  C   UNL     1      37.808   7.498 -10.336  1.00  0.00    -0.027 C 
HETATM   18  C   UNL     1      38.978   7.027  -9.871  1.00  0.00    -0.030 C 
BRANCH  18  19
HETATM   19  C   UNL     1      40.269   7.807  -9.843  1.00  0.00     0.027 C 
BRANCH  19  20
HETATM   20  C   UNL     1      40.598   8.206  -8.401  1.00  0.00     0.004 C 
BRANCH  20  21
HETATM   21  C   UNL     1      41.240   9.596  -8.342  1.00  0.00    -0.000 C 
BRANCH  21  22
HETATM   22  C   UNL     1      40.563  10.467  -7.277  1.00  0.00    -0.005 C 
HETATM   23  C   UNL     1      39.579   9.652  -6.443  1.00  0.00     0.005 C 
ENDBRANCH  21  22
ENDBRANCH  20  21
ENDBRANCH  19  20
ENDBRANCH  18  19
ENDBRANCH  16  17
ENDBRANCH  15  16
ENDBRANCH  13  14
ENDBRANCH  12  13
ENDBRANCH  10  11
ENDBRANCH   9  10
ENDBRANCH   7   8
ENDBRANCH   6   7
ENDBRANCH   5   6
ENDBRANCH   3   5
ENDBRANCH   1   3
TORSDOF 15
ENDMDL
MODEL 19
REMARK VINA RESULT:      -4.6     25.988     27.444
REMARK  15 active torsions:
REMARK  status: ('A' for Active; 'I' for Inactive)
REMARK    1  A    between atoms: O_1  and  C_22 
REMARK    2  A    between atoms: C_3  and  C_4 
REMARK    3  A    between atoms: C_3  and  C_5 
REMARK    4  A    between atoms: C_4  and  C_6 
REMARK    5  A    between atoms: C_5  and  C_7 
REMARK    6  A    between atoms: C_9  and  C_10 
REMARK    7  A    between atoms: C_9  and  C_13 
REMARK    8  A    between atoms: C_10  and  C_14 
REMARK    9  A    between atoms: C_11  and  C_12 
REMARK   10  A    between atoms: C_12  and  C_16 
REMARK   11  A    between atoms: C_13  and  C_22 
REMARK   12  A    between atoms: C_15  and  C_17 
REMARK   13  A    between atoms: C_15  and  C_20 
REMARK   14  A    between atoms: C_18  and  C_19 
REMARK   15  A    between atoms: C_18  and  C_21 
ROOT
HETATM    1  O   UNL     1      38.374  10.848  -5.111  1.00  0.00    -0.776 OA
HETATM    2  H   UNL     1      37.706  11.516  -5.323  1.00  0.00     0.167 HD
ENDROOT
BRANCH   1   3
HETATM    3  C   UNL     1      38.031   9.652  -4.587  1.00  0.00     0.139 C 
HETATM    4  O   UNL     1      37.856   9.539  -3.383  1.00  0.00    -0.650 OA
BRANCH   3   5
HETATM    5  C   UNL     1      37.875   8.458  -5.488  1.00  0.00     0.110 C 
BRANCH   5   6
HETATM    6  C   UNL     1      39.207   7.735  -5.734  1.00  0.00     0.014 C 
BRANCH   6   7
HETATM    7  C   UNL     1      39.304   7.136  -7.143  1.00  0.00     0.027 C 
BRANCH   7   8
HETATM    8  C   UNL     1      40.104   8.055  -8.032  1.00  0.00    -0.030 C 
HETATM    9  C   UNL     1      40.105   8.026  -9.378  1.00  0.00    -0.027 C 
BRANCH   9  10
HETATM   10  C   UNL     1      39.291   7.088 -10.233  1.00  0.00     0.053 C 
BRANCH  10  11
HETATM   11  C   UNL     1      37.900   7.633 -10.472  1.00  0.00    -0.027 C 
HETATM   12  C   UNL     1      37.550   8.914 -10.708  1.00  0.00    -0.027 C 
BRANCH  12  13
HETATM   13  C   UNL     1      38.471  10.103 -10.809  1.00  0.00     0.053 C 
BRANCH  13  14
HETATM   14  C   UNL     1      38.437  10.665 -12.211  1.00  0.00    -0.027 C 
HETATM   15  C   UNL     1      39.476  10.666 -13.070  1.00  0.00    -0.027 C 
BRANCH  15  16
HETATM   16  C   UNL     1      40.844  10.119 -12.755  1.00  0.00     0.053 C 
BRANCH  16  17
HETATM   17  C   UNL     1      41.422   9.369 -13.929  1.00  0.00    -0.027 C 
HETATM   18  C   UNL     1      40.975   8.173 -14.349  1.00  0.00    -0.030 C 
BRANCH  18  19
HETATM   19  C   UNL     1      39.847   7.403 -13.709  1.00  0.00     0.027 C 
BRANCH  19  20
HETATM   20  C   UNL     1      38.689   7.265 -14.703  1.00  0.00     0.004 C 
BRANCH  20  21
HETATM   21  C   UNL     1      39.178   7.412 -16.148  1.00  0.00    -0.000 C 
BRANCH  21  22
HETATM   22  C   UNL     1      38.547   8.640 -16.815  1.00  0.00    -0.005 C 
HETATM   23  C   UNL     1      38.486   8.474 -18.331  1.00  0.00     0.005 C 
ENDBRANCH  21  22
ENDBRANCH  20  21
ENDBRANCH  19  20
ENDBRANCH  18  19
ENDBRANCH  16  17
ENDBRANCH  15  16
ENDBRANCH  13  14
ENDBRANCH  12  13
ENDBRANCH  10  11
ENDBRANCH   9  10
ENDBRANCH   7   8
ENDBRANCH   6   7
ENDBRANCH   5   6
ENDBRANCH   3   5
ENDBRANCH   1   3
TORSDOF 15
ENDMDL
MODEL 20
REMARK VINA RESULT:      -4.6     25.926     28.556
REMARK  15 active torsions:
REMARK  status: ('A' for Active; 'I' for Inactive)
REMARK    1  A    between atoms: O_1  and  C_22 
REMARK    2  A    between atoms: C_3  and  C_4 
REMARK    3  A    between atoms: C_3  and  C_5 
REMARK    4  A    between atoms: C_4  and  C_6 
REMARK    5  A    between atoms: C_5  and  C_7 
REMARK    6  A    between atoms: C_9  and  C_10 
REMARK    7  A    between atoms: C_9  and  C_13 
REMARK    8  A    between atoms: C_10  and  C_14 
REMARK    9  A    between atoms: C_11  and  C_12 
REMARK   10  A    between atoms: C_12  and  C_16 
REMARK   11  A    between atoms: C_13  and  C_22 
REMARK   12  A    between atoms: C_15  and  C_17 
REMARK   13  A    between atoms: C_15  and  C_20 
REMARK   14  A    between atoms: C_18  and  C_19 
REMARK   15  A    between atoms: C_18  and  C_21 
ROOT
HETATM    1  O   UNL     1      40.278   8.586 -11.560  1.00  0.00    -0.776 OA
HETATM    2  H   UNL     1      40.967   8.857 -10.937  1.00  0.00     0.167 HD
ENDROOT
BRANCH   1   3
HETATM    3  C   UNL     1      39.569   7.452 -11.375  1.00  0.00     0.139 C 
HETATM    4  O   UNL     1      39.405   6.674 -12.303  1.00  0.00    -0.650 OA
BRANCH   3   5
HETATM    5  C   UNL     1      38.971   7.156 -10.027  1.00  0.00     0.110 C 
BRANCH   5   6
HETATM    6  C   UNL     1      39.789   7.765  -8.879  1.00  0.00     0.014 C 
BRANCH   6   7
HETATM    7  C   UNL     1      39.402   7.194  -7.509  1.00  0.00     0.027 C 
BRANCH   7   8
HETATM    8  C   UNL     1      38.518   8.175  -6.781  1.00  0.00    -0.030 C 
HETATM    9  C   UNL     1      38.351   8.226  -5.446  1.00  0.00    -0.027 C 
BRANCH   9  10
HETATM   10  C   UNL     1      39.034   7.331  -4.444  1.00  0.00     0.053 C 
BRANCH  10  11
HETATM   11  C   UNL     1      39.408   8.094  -3.192  1.00  0.00    -0.027 C 
HETATM   12  C   UNL     1      40.482   8.889  -3.007  1.00  0.00    -0.027 C 
BRANCH  12  13
HETATM   13  C   UNL     1      41.551   9.220  -4.017  1.00  0.00     0.053 C 
BRANCH  13  14
HETATM   14  C   UNL     1      41.489  10.686  -4.374  1.00  0.00    -0.027 C 
HETATM   15  C   UNL     1      41.386  11.174  -5.627  1.00  0.00    -0.027 C 
BRANCH  15  16
HETATM   16  C   UNL     1      41.334  10.326  -6.871  1.00  0.00     0.053 C 
BRANCH  16  17
HETATM   17  C   UNL     1      41.646  11.135  -8.105  1.00  0.00    -0.027 C 
HETATM   18  C   UNL     1      40.712  11.719  -8.876  1.00  0.00    -0.030 C 
BRANCH  18  19
HETATM   19  C   UNL     1      39.226  11.643  -8.632  1.00  0.00     0.027 C 
BRANCH  19  20
HETATM   20  C   UNL     1      38.526  11.104  -9.884  1.00  0.00     0.004 C 
BRANCH  20  21
HETATM   21  C   UNL     1      37.218  10.391  -9.525  1.00  0.00    -0.000 C 
BRANCH  21  22
HETATM   22  C   UNL     1      36.641  10.936  -8.213  1.00  0.00    -0.005 C 
HETATM   23  C   UNL     1      35.440  11.840  -8.472  1.00  0.00     0.005 C 
ENDBRANCH  21  22
ENDBRANCH  20  21
ENDBRANCH  19  20
ENDBRANCH  18  19
ENDBRANCH  16  17
ENDBRANCH  15  16
ENDBRANCH  13  14
ENDBRANCH  12  13
ENDBRANCH  10  11
ENDBRANCH   9  10
ENDBRANCH   7   8
ENDBRANCH   6   7
ENDBRANCH   5   6
ENDBRANCH   3   5
ENDBRANCH   1   3
TORSDOF 15
ENDMDL
