MODEL 1
REMARK VINA RESULT:      -5.0      0.000      0.000
REMARK  16 active torsions:
REMARK  status: ('A' for Active; 'I' for Inactive)
REMARK    1  A    between atoms: O_1  and  C_20 
REMARK    2  A    between atoms: C_3  and  C_4 
REMARK    3  A    between atoms: C_3  and  C_5 
REMARK    4  A    between atoms: C_4  and  C_8 
REMARK    5  A    between atoms: C_5  and  C_11 
REMARK    6  A    between atoms: C_6  and  C_7 
REMARK    7  A    between atoms: C_6  and  C_9 
REMARK    8  A    between atoms: C_7  and  C_10 
REMARK    9  A    between atoms: C_8  and  C_12 
REMARK   10  A    between atoms: C_9  and  C_13 
REMARK   11  A    between atoms: C_10  and  C_14 
REMARK   12  A    between atoms: C_11  and  C_15 
REMARK   13  A    between atoms: C_12  and  C_16 
REMARK   14  A    between atoms: C_13  and  C_17 
REMARK   15  A    between atoms: C_14  and  C_18 
REMARK   16  A    between atoms: C_18  and  C_20 
ROOT
HETATM    1  O   UNL     1      39.476   6.337  -6.398  1.00  0.00    -0.776 OA
HETATM    2  H   UNL     1      39.656   6.302  -5.447  1.00  0.00     0.167 HD
ENDROOT
BRANCH   1   3
HETATM    3  C   UNL     1      39.511   7.501  -7.079  1.00  0.00     0.139 C 
HETATM    4  O   UNL     1      39.508   8.562  -6.469  1.00  0.00    -0.650 OA
BRANCH   3   5
HETATM    5  C   UNL     1      39.553   7.467  -8.584  1.00  0.00     0.110 C 
BRANCH   5   6
HETATM    6  C   UNL     1      40.739   8.245  -9.172  1.00  0.00     0.010 C 
BRANCH   6   7
HETATM    7  C   UNL     1      40.305   9.072 -10.389  1.00  0.00     0.001 C 
BRANCH   7   8
HETATM    8  C   UNL     1      38.793   8.962 -10.613  1.00  0.00     0.000 C 
BRANCH   8   9
HETATM    9  C   UNL     1      38.478   8.558 -12.058  1.00  0.00     0.000 C 
BRANCH   9  10
HETATM   10  C   UNL     1      39.498   7.536 -12.571  1.00  0.00     0.004 C 
BRANCH  10  11
HETATM   11  C   UNL     1      39.306   7.255 -14.064  1.00  0.00     0.027 C 
BRANCH  11  12
HETATM   12  C   UNL     1      39.985   8.337 -14.869  1.00  0.00    -0.031 C 
HETATM   13  C   UNL     1      40.019   8.440 -16.213  1.00  0.00    -0.031 C 
BRANCH  13  14
HETATM   14  C   UNL     1      39.394   7.495 -17.217  1.00  0.00     0.027 C 
BRANCH  14  15
HETATM   15  C   UNL     1      40.023   7.668 -18.611  1.00  0.00     0.004 C 
BRANCH  15  16
HETATM   16  C   UNL     1      41.028   8.833 -18.715  1.00  0.00     0.000 C 
BRANCH  16  17
HETATM   17  C   UNL     1      40.739   9.780 -19.892  1.00  0.00     0.000 C 
BRANCH  17  18
HETATM   18  C   UNL     1      40.519   8.995 -21.192  1.00  0.00     0.000 C 
BRANCH  18  19
HETATM   19  C   UNL     1      39.421   9.640 -22.045  1.00  0.00    -0.000 C 
BRANCH  19  20
HETATM   20  C   UNL     1      38.110   8.851 -21.947  1.00  0.00    -0.005 C 
HETATM   21  C   UNL     1      37.416   9.102 -20.612  1.00  0.00     0.005 C 
ENDBRANCH  19  20
ENDBRANCH  18  19
ENDBRANCH  17  18
ENDBRANCH  16  17
ENDBRANCH  15  16
ENDBRANCH  14  15
ENDBRANCH  13  14
ENDBRANCH  11  12
ENDBRANCH  10  11
ENDBRANCH   9  10
ENDBRANCH   8   9
ENDBRANCH   7   8
ENDBRANCH   6   7
ENDBRANCH   5   6
ENDBRANCH   3   5
ENDBRANCH   1   3
TORSDOF 16
ENDMDL
MODEL 2
REMARK VINA RESULT:      -4.8      4.517      8.514
REMARK  16 active torsions:
REMARK  status: ('A' for Active; 'I' for Inactive)
REMARK    1  A    between atoms: O_1  and  C_20 
REMARK    2  A    between atoms: C_3  and  C_4 
REMARK    3  A    between atoms: C_3  and  C_5 
REMARK    4  A    between atoms: C_4  and  C_8 
REMARK    5  A    between atoms: C_5  and  C_11 
REMARK    6  A    between atoms: C_6  and  C_7 
REMARK    7  A    between atoms: C_6  and  C_9 
REMARK    8  A    between atoms: C_7  and  C_10 
REMARK    9  A    between atoms: C_8  and  C_12 
REMARK   10  A    between atoms: C_9  and  C_13 
REMARK   11  A    between atoms: C_10  and  C_14 
REMARK   12  A    between atoms: C_11  and  C_15 
REMARK   13  A    between atoms: C_12  and  C_16 
REMARK   14  A    between atoms: C_13  and  C_17 
REMARK   15  A    between atoms: C_14  and  C_18 
REMARK   16  A    between atoms: C_18  and  C_20 
ROOT
HETATM    1  O   UNL     1      39.577   6.281 -15.923  1.00  0.00    -0.776 OA
HETATM    2  H   UNL     1      38.923   6.003 -16.581  1.00  0.00     0.167 HD
ENDROOT
BRANCH   1   3
HETATM    3  C   UNL     1      39.613   7.547 -15.457  1.00  0.00     0.139 C 
HETATM    4  O   UNL     1      38.710   8.324 -15.739  1.00  0.00    -0.650 OA
BRANCH   3   5
HETATM    5  C   UNL     1      40.770   7.976 -14.594  1.00  0.00     0.110 C 
BRANCH   5   6
HETATM    6  C   UNL     1      40.349   8.372 -13.172  1.00  0.00     0.010 C 
BRANCH   6   7
HETATM    7  C   UNL     1      40.421   9.892 -12.981  1.00  0.00     0.001 C 
BRANCH   7   8
HETATM    8  C   UNL     1      39.017  10.497 -12.872  1.00  0.00     0.000 C 
BRANCH   8   9
HETATM    9  C   UNL     1      37.984   9.429 -12.495  1.00  0.00     0.000 C 
BRANCH   9  10
HETATM   10  C   UNL     1      37.129   9.894 -11.312  1.00  0.00     0.004 C 
BRANCH  10  11
HETATM   11  C   UNL     1      37.214   8.912 -10.140  1.00  0.00     0.027 C 
BRANCH  11  12
HETATM   12  C   UNL     1      38.127   7.768 -10.510  1.00  0.00    -0.031 C 
HETATM   13  C   UNL     1      38.987   7.126  -9.694  1.00  0.00    -0.031 C 
BRANCH  13  14
HETATM   14  C   UNL     1      39.238   7.409  -8.228  1.00  0.00     0.027 C 
BRANCH  14  15
HETATM   15  C   UNL     1      40.339   8.469  -8.047  1.00  0.00     0.004 C 
BRANCH  15  16
HETATM   16  C   UNL     1      41.258   8.648  -9.273  1.00  0.00     0.000 C 
BRANCH  16  17
HETATM   17  C   UNL     1      41.687  10.106  -9.502  1.00  0.00     0.000 C 
BRANCH  17  18
HETATM   18  C   UNL     1      40.781  11.076  -8.733  1.00  0.00     0.000 C 
BRANCH  18  19
HETATM   19  C   UNL     1      39.703  11.666  -9.650  1.00  0.00    -0.000 C 
BRANCH  19  20
HETATM   20  C   UNL     1      39.131  12.963  -9.066  1.00  0.00    -0.005 C 
HETATM   21  C   UNL     1      37.824  13.347  -9.754  1.00  0.00     0.005 C 
ENDBRANCH  19  20
ENDBRANCH  18  19
ENDBRANCH  17  18
ENDBRANCH  16  17
ENDBRANCH  15  16
ENDBRANCH  14  15
ENDBRANCH  13  14
ENDBRANCH  11  12
ENDBRANCH  10  11
ENDBRANCH   9  10
ENDBRANCH   8   9
ENDBRANCH   7   8
ENDBRANCH   6   7
ENDBRANCH   5   6
ENDBRANCH   3   5
ENDBRANCH   1   3
TORSDOF 16
ENDMDL
MODEL 3
REMARK VINA RESULT:      -4.7      4.380     10.828
REMARK  16 active torsions:
REMARK  status: ('A' for Active; 'I' for Inactive)
REMARK    1  A    between atoms: O_1  and  C_20 
REMARK    2  A    between atoms: C_3  and  C_4 
REMARK    3  A    between atoms: C_3  and  C_5 
REMARK    4  A    between atoms: C_4  and  C_8 
REMARK    5  A    between atoms: C_5  and  C_11 
REMARK    6  A    between atoms: C_6  and  C_7 
REMARK    7  A    between atoms: C_6  and  C_9 
REMARK    8  A    between atoms: C_7  and  C_10 
REMARK    9  A    between atoms: C_8  and  C_12 
REMARK   10  A    between atoms: C_9  and  C_13 
REMARK   11  A    between atoms: C_10  and  C_14 
REMARK   12  A    between atoms: C_11  and  C_15 
REMARK   13  A    between atoms: C_12  and  C_16 
REMARK   14  A    between atoms: C_13  and  C_17 
REMARK   15  A    between atoms: C_14  and  C_18 
REMARK   16  A    between atoms: C_18  and  C_20 
ROOT
HETATM    1  O   UNL     1      40.422   8.743 -17.696  1.00  0.00    -0.776 OA
HETATM    2  H   UNL     1      40.606   8.880 -18.636  1.00  0.00     0.167 HD
ENDROOT
BRANCH   1   3
HETATM    3  C   UNL     1      39.608   7.753 -17.273  1.00  0.00     0.139 C 
HETATM    4  O   UNL     1      39.409   6.783 -17.992  1.00  0.00    -0.650 OA
BRANCH   3   5
HETATM    5  C   UNL     1      38.960   7.867 -15.919  1.00  0.00     0.110 C 
BRANCH   5   6
HETATM    6  C   UNL     1      39.830   7.309 -14.785  1.00  0.00     0.010 C 
BRANCH   6   7
HETATM    7  C   UNL     1      40.094   8.379 -13.717  1.00  0.00     0.001 C 
BRANCH   7   8
HETATM    8  C   UNL     1      39.056   8.297 -12.593  1.00  0.00     0.000 C 
BRANCH   8   9
HETATM    9  C   UNL     1      39.375   7.148 -11.630  1.00  0.00     0.000 C 
BRANCH   9  10
HETATM   10  C   UNL     1      38.434   7.175 -10.421  1.00  0.00     0.004 C 
BRANCH  10  11
HETATM   11  C   UNL     1      39.212   7.326  -9.111  1.00  0.00     0.027 C 
BRANCH  11  12
HETATM   12  C   UNL     1      40.633   7.735  -9.416  1.00  0.00    -0.031 C 
HETATM   13  C   UNL     1      41.235   8.887  -9.054  1.00  0.00    -0.031 C 
BRANCH  13  14
HETATM   14  C   UNL     1      40.623  10.030  -8.272  1.00  0.00     0.027 C 
BRANCH  14  15
HETATM   15  C   UNL     1      41.710  10.882  -7.592  1.00  0.00     0.004 C 
BRANCH  15  16
HETATM   16  C   UNL     1      41.545  11.022  -6.065  1.00  0.00     0.000 C 
BRANCH  16  17
HETATM   17  C   UNL     1      40.409  10.157  -5.495  1.00  0.00     0.000 C 
BRANCH  17  18
HETATM   18  C   UNL     1      40.917   8.762  -5.108  1.00  0.00     0.000 C 
BRANCH  18  19
HETATM   19  C   UNL     1      40.283   8.291  -3.794  1.00  0.00    -0.000 C 
BRANCH  19  20
HETATM   20  C   UNL     1      39.220   7.216  -4.048  1.00  0.00    -0.005 C 
HETATM   21  C   UNL     1      38.484   7.469  -5.360  1.00  0.00     0.005 C 
ENDBRANCH  19  20
ENDBRANCH  18  19
ENDBRANCH  17  18
ENDBRANCH  16  17
ENDBRANCH  15  16
ENDBRANCH  14  15
ENDBRANCH  13  14
ENDBRANCH  11  12
ENDBRANCH  10  11
ENDBRANCH   9  10
ENDBRANCH   8   9
ENDBRANCH   7   8
ENDBRANCH   6   7
ENDBRANCH   5   6
ENDBRANCH   3   5
ENDBRANCH   1   3
TORSDOF 16
ENDMDL
MODEL 4
REMARK VINA RESULT:      -4.7      1.615      2.971
REMARK  16 active torsions:
REMARK  status: ('A' for Active; 'I' for Inactive)
REMARK    1  A    between atoms: O_1  and  C_20 
REMARK    2  A    between atoms: C_3  and  C_4 
REMARK    3  A    between atoms: C_3  and  C_5 
REMARK    4  A    between atoms: C_4  and  C_8 
REMARK    5  A    between atoms: C_5  and  C_11 
REMARK    6  A    between atoms: C_6  and  C_7 
REMARK    7  A    between atoms: C_6  and  C_9 
REMARK    8  A    between atoms: C_7  and  C_10 
REMARK    9  A    between atoms: C_8  and  C_12 
REMARK   10  A    between atoms: C_9  and  C_13 
REMARK   11  A    between atoms: C_10  and  C_14 
REMARK   12  A    between atoms: C_11  and  C_15 
REMARK   13  A    between atoms: C_12  and  C_16 
REMARK   14  A    between atoms: C_13  and  C_17 
REMARK   15  A    between atoms: C_14  and  C_18 
REMARK   16  A    between atoms: C_18  and  C_20 
ROOT
HETATM    1  O   UNL     1      39.942   7.188  -8.618  1.00  0.00    -0.776 OA
HETATM    2  H   UNL     1      39.890   7.528  -7.713  1.00  0.00     0.167 HD
ENDROOT
BRANCH   1   3
HETATM    3  C   UNL     1      39.085   7.599  -9.576  1.00  0.00     0.139 C 
HETATM    4  O   UNL     1      38.188   8.381  -9.293  1.00  0.00    -0.650 OA
BRANCH   3   5
HETATM    5  C   UNL     1      39.256   7.081 -10.980  1.00  0.00     0.110 C 
BRANCH   5   6
HETATM    6  C   UNL     1      38.635   8.001 -12.041  1.00  0.00     0.010 C 
BRANCH   6   7
HETATM    7  C   UNL     1      39.502   8.044 -13.306  1.00  0.00     0.001 C 
BRANCH   7   8
HETATM    8  C   UNL     1      38.998   7.039 -14.348  1.00  0.00     0.000 C 
BRANCH   8   9
HETATM    9  C   UNL     1      39.152   7.594 -15.769  1.00  0.00     0.000 C 
BRANCH   9  10
HETATM   10  C   UNL     1      38.036   8.596 -16.084  1.00  0.00     0.004 C 
BRANCH  10  11
HETATM   11  C   UNL     1      38.599   9.895 -16.666  1.00  0.00     0.027 C 
BRANCH  11  12
HETATM   12  C   UNL     1      40.053  10.029 -16.279  1.00  0.00    -0.031 C 
HETATM   13  C   UNL     1      41.113  10.011 -17.111  1.00  0.00    -0.031 C 
BRANCH  13  14
HETATM   14  C   UNL     1      41.090   9.845 -18.616  1.00  0.00     0.027 C 
BRANCH  14  15
HETATM   15  C   UNL     1      41.153   8.359 -19.013  1.00  0.00     0.004 C 
BRANCH  15  16
HETATM   16  C   UNL     1      40.144   7.949 -20.105  1.00  0.00     0.000 C 
BRANCH  16  17
HETATM   17  C   UNL     1      38.819   7.414 -19.536  1.00  0.00     0.000 C 
BRANCH  17  18
HETATM   18  C   UNL     1      37.616   8.061 -20.236  1.00  0.00     0.000 C 
BRANCH  18  19
HETATM   19  C   UNL     1      37.563   9.568 -19.956  1.00  0.00    -0.000 C 
BRANCH  19  20
HETATM   20  C   UNL     1      37.643  10.375 -21.257  1.00  0.00    -0.005 C 
HETATM   21  C   UNL     1      38.809  11.358 -21.225  1.00  0.00     0.005 C 
ENDBRANCH  19  20
ENDBRANCH  18  19
ENDBRANCH  17  18
ENDBRANCH  16  17
ENDBRANCH  15  16
ENDBRANCH  14  15
ENDBRANCH  13  14
ENDBRANCH  11  12
ENDBRANCH  10  11
ENDBRANCH   9  10
ENDBRANCH   8   9
ENDBRANCH   7   8
ENDBRANCH   6   7
ENDBRANCH   5   6
ENDBRANCH   3   5
ENDBRANCH   1   3
TORSDOF 16
ENDMDL
MODEL 5
REMARK VINA RESULT:      -4.7      2.147      3.264
REMARK  16 active torsions:
REMARK  status: ('A' for Active; 'I' for Inactive)
REMARK    1  A    between atoms: O_1  and  C_20 
REMARK    2  A    between atoms: C_3  and  C_4 
REMARK    3  A    between atoms: C_3  and  C_5 
REMARK    4  A    between atoms: C_4  and  C_8 
REMARK    5  A    between atoms: C_5  and  C_11 
REMARK    6  A    between atoms: C_6  and  C_7 
REMARK    7  A    between atoms: C_6  and  C_9 
REMARK    8  A    between atoms: C_7  and  C_10 
REMARK    9  A    between atoms: C_8  and  C_12 
REMARK   10  A    between atoms: C_9  and  C_13 
REMARK   11  A    between atoms: C_10  and  C_14 
REMARK   12  A    between atoms: C_11  and  C_15 
REMARK   13  A    between atoms: C_12  and  C_16 
REMARK   14  A    between atoms: C_13  and  C_17 
REMARK   15  A    between atoms: C_14  and  C_18 
REMARK   16  A    between atoms: C_18  and  C_20 
ROOT
HETATM    1  O   UNL     1      38.803   6.089 -10.144  1.00  0.00    -0.776 OA
HETATM    2  H   UNL     1      38.388   6.009  -9.273  1.00  0.00     0.167 HD
ENDROOT
BRANCH   1   3
HETATM    3  C   UNL     1      39.387   7.238 -10.543  1.00  0.00     0.139 C 
HETATM    4  O   UNL     1      40.351   7.675  -9.928  1.00  0.00    -0.650 OA
BRANCH   3   5
HETATM    5  C   UNL     1      38.836   7.960 -11.744  1.00  0.00     0.110 C 
BRANCH   5   6
HETATM    6  C   UNL     1      39.340   7.387 -13.076  1.00  0.00     0.010 C 
BRANCH   6   7
HETATM    7  C   UNL     1      39.542   8.501 -14.112  1.00  0.00     0.001 C 
BRANCH   7   8
HETATM    8  C   UNL     1      38.700   9.732 -13.763  1.00  0.00     0.000 C 
BRANCH   8   9
HETATM    9  C   UNL     1      37.472   9.837 -14.675  1.00  0.00     0.000 C 
BRANCH   9  10
HETATM   10  C   UNL     1      37.611   8.904 -15.882  1.00  0.00     0.004 C 
BRANCH  10  11
HETATM   11  C   UNL     1      37.641   9.690 -17.196  1.00  0.00     0.027 C 
BRANCH  11  12
HETATM   12  C   UNL     1      38.922  10.487 -17.274  1.00  0.00    -0.031 C 
HETATM   13  C   UNL     1      40.156  10.006 -17.523  1.00  0.00    -0.031 C 
BRANCH  13  14
HETATM   14  C   UNL     1      40.541   8.563 -17.771  1.00  0.00     0.027 C 
BRANCH  14  15
HETATM   15  C   UNL     1      40.414   8.201 -19.261  1.00  0.00     0.004 C 
BRANCH  15  16
HETATM   16  C   UNL     1      39.222   7.280 -19.594  1.00  0.00     0.000 C 
BRANCH  16  17
HETATM   17  C   UNL     1      38.105   7.992 -20.373  1.00  0.00     0.000 C 
BRANCH  17  18
HETATM   18  C   UNL     1      38.614   8.502 -21.728  1.00  0.00     0.000 C 
BRANCH  18  19
HETATM   19  C   UNL     1      39.168   7.350 -22.575  1.00  0.00    -0.000 C 
BRANCH  19  20
HETATM   20  C   UNL     1      40.325   7.824 -23.462  1.00  0.00    -0.005 C 
HETATM   21  C   UNL     1      39.880   8.947 -24.394  1.00  0.00     0.005 C 
ENDBRANCH  19  20
ENDBRANCH  18  19
ENDBRANCH  17  18
ENDBRANCH  16  17
ENDBRANCH  15  16
ENDBRANCH  14  15
ENDBRANCH  13  14
ENDBRANCH  11  12
ENDBRANCH  10  11
ENDBRANCH   9  10
ENDBRANCH   8   9
ENDBRANCH   7   8
ENDBRANCH   6   7
ENDBRANCH   5   6
ENDBRANCH   3   5
ENDBRANCH   1   3
TORSDOF 16
ENDMDL
MODEL 6
REMARK VINA RESULT:      -4.7      4.135     10.219
REMARK  16 active torsions:
REMARK  status: ('A' for Active; 'I' for Inactive)
REMARK    1  A    between atoms: O_1  and  C_20 
REMARK    2  A    between atoms: C_3  and  C_4 
REMARK    3  A    between atoms: C_3  and  C_5 
REMARK    4  A    between atoms: C_4  and  C_8 
REMARK    5  A    between atoms: C_5  and  C_11 
REMARK    6  A    between atoms: C_6  and  C_7 
REMARK    7  A    between atoms: C_6  and  C_9 
REMARK    8  A    between atoms: C_7  and  C_10 
REMARK    9  A    between atoms: C_8  and  C_12 
REMARK   10  A    between atoms: C_9  and  C_13 
REMARK   11  A    between atoms: C_10  and  C_14 
REMARK   12  A    between atoms: C_11  and  C_15 
REMARK   13  A    between atoms: C_12  and  C_16 
REMARK   14  A    between atoms: C_13  and  C_17 
REMARK   15  A    between atoms: C_14  and  C_18 
REMARK   16  A    between atoms: C_18  and  C_20 
ROOT
HETATM    1  O   UNL     1      39.429   7.126 -18.274  1.00  0.00    -0.776 OA
HETATM    2  H   UNL     1      39.759   7.786 -18.901  1.00  0.00     0.167 HD
ENDROOT
BRANCH   1   3
HETATM    3  C   UNL     1      39.438   7.350 -16.944  1.00  0.00     0.139 C 
HETATM    4  O   UNL     1      39.503   6.404 -16.169  1.00  0.00    -0.650 OA
BRANCH   3   5
HETATM    5  C   UNL     1      39.367   8.767 -16.440  1.00  0.00     0.110 C 
BRANCH   5   6
HETATM    6  C   UNL     1      40.734   9.328 -16.024  1.00  0.00     0.010 C 
BRANCH   6   7
HETATM    7  C   UNL     1      41.115   8.858 -14.614  1.00  0.00     0.001 C 
BRANCH   7   8
HETATM    8  C   UNL     1      39.958   9.076 -13.633  1.00  0.00     0.000 C 
BRANCH   8   9
HETATM    9  C   UNL     1      40.187  10.330 -12.781  1.00  0.00     0.000 C 
BRANCH   9  10
HETATM   10  C   UNL     1      39.059  10.506 -11.760  1.00  0.00     0.004 C 
BRANCH  10  11
HETATM   11  C   UNL     1      37.812   9.713 -12.162  1.00  0.00     0.027 C 
BRANCH  11  12
HETATM   12  C   UNL     1      37.215   9.062 -10.937  1.00  0.00    -0.031 C 
HETATM   13  C   UNL     1      37.710   8.003 -10.265  1.00  0.00    -0.031 C 
BRANCH  13  14
HETATM   14  C   UNL     1      38.967   7.223 -10.587  1.00  0.00     0.027 C 
BRANCH  14  15
HETATM   15  C   UNL     1      40.106   7.576  -9.615  1.00  0.00     0.004 C 
BRANCH  15  16
HETATM   16  C   UNL     1      39.671   7.686  -8.139  1.00  0.00     0.000 C 
BRANCH  16  17
HETATM   17  C   UNL     1      40.236   8.929  -7.431  1.00  0.00     0.000 C 
BRANCH  17  18
HETATM   18  C   UNL     1      39.429   9.262  -6.169  1.00  0.00     0.000 C 
BRANCH  18  19
HETATM   19  C   UNL     1      39.434   8.084  -5.188  1.00  0.00    -0.000 C 
BRANCH  19  20
HETATM   20  C   UNL     1      40.808   7.920  -4.529  1.00  0.00    -0.005 C 
HETATM   21  C   UNL     1      41.249   9.211  -3.845  1.00  0.00     0.005 C 
ENDBRANCH  19  20
ENDBRANCH  18  19
ENDBRANCH  17  18
ENDBRANCH  16  17
ENDBRANCH  15  16
ENDBRANCH  14  15
ENDBRANCH  13  14
ENDBRANCH  11  12
ENDBRANCH  10  11
ENDBRANCH   9  10
ENDBRANCH   8   9
ENDBRANCH   7   8
ENDBRANCH   6   7
ENDBRANCH   5   6
ENDBRANCH   3   5
ENDBRANCH   1   3
TORSDOF 16
ENDMDL
MODEL 7
REMARK VINA RESULT:      -4.7     25.257     27.840
REMARK  16 active torsions:
REMARK  status: ('A' for Active; 'I' for Inactive)
REMARK    1  A    between atoms: O_1  and  C_20 
REMARK    2  A    between atoms: C_3  and  C_4 
REMARK    3  A    between atoms: C_3  and  C_5 
REMARK    4  A    between atoms: C_4  and  C_8 
REMARK    5  A    between atoms: C_5  and  C_11 
REMARK    6  A    between atoms: C_6  and  C_7 
REMARK    7  A    between atoms: C_6  and  C_9 
REMARK    8  A    between atoms: C_7  and  C_10 
REMARK    9  A    between atoms: C_8  and  C_12 
REMARK   10  A    between atoms: C_9  and  C_13 
REMARK   11  A    between atoms: C_10  and  C_14 
REMARK   12  A    between atoms: C_11  and  C_15 
REMARK   13  A    between atoms: C_12  and  C_16 
REMARK   14  A    between atoms: C_13  and  C_17 
REMARK   15  A    between atoms: C_14  and  C_18 
REMARK   16  A    between atoms: C_18  and  C_20 
ROOT
HETATM    1  O   UNL     1      32.360 -20.807  -4.656  1.00  0.00    -0.776 OA
HETATM    2  H   UNL     1      32.832 -20.108  -4.181  1.00  0.00     0.167 HD
ENDROOT
BRANCH   1   3
HETATM    3  C   UNL     1      31.084 -20.645  -5.064  1.00  0.00     0.139 C 
HETATM    4  O   UNL     1      30.782 -20.889  -6.225  1.00  0.00    -0.650 OA
BRANCH   3   5
HETATM    5  C   UNL     1      30.055 -20.163  -4.075  1.00  0.00     0.110 C 
BRANCH   5   6
HETATM    6  C   UNL     1      29.682 -18.686  -4.264  1.00  0.00     0.010 C 
BRANCH   6   7
HETATM    7  C   UNL     1      30.887 -17.776  -3.994  1.00  0.00     0.001 C 
BRANCH   7   8
HETATM    8  C   UNL     1      31.067 -16.758  -5.124  1.00  0.00     0.000 C 
BRANCH   8   9
HETATM    9  C   UNL     1      30.521 -17.302  -6.450  1.00  0.00     0.000 C 
BRANCH   9  10
HETATM   10  C   UNL     1      31.134 -16.554  -7.638  1.00  0.00     0.004 C 
BRANCH  10  11
HETATM   11  C   UNL     1      32.201 -15.556  -7.180  1.00  0.00     0.027 C 
BRANCH  11  12
HETATM   12  C   UNL     1      31.948 -14.217  -7.831  1.00  0.00    -0.031 C 
HETATM   13  C   UNL     1      31.935 -13.014  -7.223  1.00  0.00    -0.031 C 
BRANCH  13  14
HETATM   14  C   UNL     1      32.163 -12.733  -5.752  1.00  0.00     0.027 C 
BRANCH  14  15
HETATM   15  C   UNL     1      30.864 -12.908  -4.945  1.00  0.00     0.004 C 
BRANCH  15  16
HETATM   16  C   UNL     1      29.860 -11.746  -5.095  1.00  0.00     0.000 C 
BRANCH  16  17
HETATM   17  C   UNL     1      28.582 -12.144  -5.851  1.00  0.00     0.000 C 
BRANCH  17  18
HETATM   18  C   UNL     1      28.142 -13.567  -5.484  1.00  0.00     0.000 C 
BRANCH  18  19
HETATM   19  C   UNL     1      28.113 -14.471  -6.722  1.00  0.00    -0.000 C 
BRANCH  19  20
HETATM   20  C   UNL     1      28.340 -13.659  -8.003  1.00  0.00    -0.005 C 
HETATM   21  C   UNL     1      28.425 -14.569  -9.224  1.00  0.00     0.005 C 
ENDBRANCH  19  20
ENDBRANCH  18  19
ENDBRANCH  17  18
ENDBRANCH  16  17
ENDBRANCH  15  16
ENDBRANCH  14  15
ENDBRANCH  13  14
ENDBRANCH  11  12
ENDBRANCH  10  11
ENDBRANCH   9  10
ENDBRANCH   8   9
ENDBRANCH   7   8
ENDBRANCH   6   7
ENDBRANCH   5   6
ENDBRANCH   3   5
ENDBRANCH   1   3
TORSDOF 16
ENDMDL
MODEL 8
REMARK VINA RESULT:      -4.7     26.443     28.101
REMARK  16 active torsions:
REMARK  status: ('A' for Active; 'I' for Inactive)
REMARK    1  A    between atoms: O_1  and  C_20 
REMARK    2  A    between atoms: C_3  and  C_4 
REMARK    3  A    between atoms: C_3  and  C_5 
REMARK    4  A    between atoms: C_4  and  C_8 
REMARK    5  A    between atoms: C_5  and  C_11 
REMARK    6  A    between atoms: C_6  and  C_7 
REMARK    7  A    between atoms: C_6  and  C_9 
REMARK    8  A    between atoms: C_7  and  C_10 
REMARK    9  A    between atoms: C_8  and  C_12 
REMARK   10  A    between atoms: C_9  and  C_13 
REMARK   11  A    between atoms: C_10  and  C_14 
REMARK   12  A    between atoms: C_11  and  C_15 
REMARK   13  A    between atoms: C_12  and  C_16 
REMARK   14  A    between atoms: C_13  and  C_17 
REMARK   15  A    between atoms: C_14  and  C_18 
REMARK   16  A    between atoms: C_18  and  C_20 
ROOT
HETATM    1  O   UNL     1      31.214 -21.377 -20.019  1.00  0.00    -0.776 OA
HETATM    2  H   UNL     1      30.696 -22.175 -20.199  1.00  0.00     0.167 HD
ENDROOT
BRANCH   1   3
HETATM    3  C   UNL     1      30.984 -20.223 -20.680  1.00  0.00     0.139 C 
HETATM    4  O   UNL     1      30.839 -20.238 -21.895  1.00  0.00    -0.650 OA
BRANCH   3   5
HETATM    5  C   UNL     1      30.911 -18.936 -19.901  1.00  0.00     0.110 C 
BRANCH   5   6
HETATM    6  C   UNL     1      29.825 -18.949 -18.816  1.00  0.00     0.010 C 
BRANCH   6   7
HETATM    7  C   UNL     1      30.443 -18.827 -17.418  1.00  0.00     0.001 C 
BRANCH   7   8
HETATM    8  C   UNL     1      30.856 -20.201 -16.881  1.00  0.00     0.000 C 
BRANCH   8   9
HETATM    9  C   UNL     1      31.009 -20.174 -15.355  1.00  0.00     0.000 C 
BRANCH   9  10
HETATM   10  C   UNL     1      30.403 -18.894 -14.771  1.00  0.00     0.004 C 
BRANCH  10  11
HETATM   11  C   UNL     1      31.253 -18.348 -13.621  1.00  0.00     0.027 C 
BRANCH  11  12
HETATM   12  C   UNL     1      30.364 -17.623 -12.640  1.00  0.00    -0.031 C 
HETATM   13  C   UNL     1      29.895 -16.364 -12.754  1.00  0.00    -0.031 C 
BRANCH  13  14
HETATM   14  C   UNL     1      30.160 -15.391 -13.883  1.00  0.00     0.027 C 
BRANCH  14  15
HETATM   15  C   UNL     1      28.954 -15.301 -14.835  1.00  0.00     0.004 C 
BRANCH  15  16
HETATM   16  C   UNL     1      29.315 -15.396 -16.331  1.00  0.00     0.000 C 
BRANCH  16  17
HETATM   17  C   UNL     1      30.636 -14.691 -16.682  1.00  0.00     0.000 C 
BRANCH  17  18
HETATM   18  C   UNL     1      30.383 -13.269 -17.199  1.00  0.00     0.000 C 
BRANCH  18  19
HETATM   19  C   UNL     1      31.222 -12.245 -16.425  1.00  0.00    -0.000 C 
BRANCH  19  20
HETATM   20  C   UNL     1      30.519 -11.820 -15.131  1.00  0.00    -0.005 C 
HETATM   21  C   UNL     1      29.035 -11.558 -15.372  1.00  0.00     0.005 C 
ENDBRANCH  19  20
ENDBRANCH  18  19
ENDBRANCH  17  18
ENDBRANCH  16  17
ENDBRANCH  15  16
ENDBRANCH  14  15
ENDBRANCH  13  14
ENDBRANCH  11  12
ENDBRANCH  10  11
ENDBRANCH   9  10
ENDBRANCH   8   9
ENDBRANCH   7   8
ENDBRANCH   6   7
ENDBRANCH   5   6
ENDBRANCH   3   5
ENDBRANCH   1   3
TORSDOF 16
ENDMDL
MODEL 9
REMARK VINA RESULT:      -4.7     24.729     26.094
REMARK  16 active torsions:
REMARK  status: ('A' for Active; 'I' for Inactive)
REMARK    1  A    between atoms: O_1  and  C_20 
REMARK    2  A    between atoms: C_3  and  C_4 
REMARK    3  A    between atoms: C_3  and  C_5 
REMARK    4  A    between atoms: C_4  and  C_8 
REMARK    5  A    between atoms: C_5  and  C_11 
REMARK    6  A    between atoms: C_6  and  C_7 
REMARK    7  A    between atoms: C_6  and  C_9 
REMARK    8  A    between atoms: C_7  and  C_10 
REMARK    9  A    between atoms: C_8  and  C_12 
REMARK   10  A    between atoms: C_9  and  C_13 
REMARK   11  A    between atoms: C_10  and  C_14 
REMARK   12  A    between atoms: C_11  and  C_15 
REMARK   13  A    between atoms: C_12  and  C_16 
REMARK   14  A    between atoms: C_13  and  C_17 
REMARK   15  A    between atoms: C_14  and  C_18 
REMARK   16  A    between atoms: C_18  and  C_20 
ROOT
HETATM    1  O   UNL     1      31.787 -21.135 -14.963  1.00  0.00    -0.776 OA
HETATM    2  H   UNL     1      31.639 -21.176 -14.007  1.00  0.00     0.167 HD
ENDROOT
BRANCH   1   3
HETATM    3  C   UNL     1      30.993 -20.398 -15.768  1.00  0.00     0.139 C 
HETATM    4  O   UNL     1      30.757 -20.783 -16.905  1.00  0.00    -0.650 OA
BRANCH   3   5
HETATM    5  C   UNL     1      30.411 -19.112 -15.243  1.00  0.00     0.110 C 
BRANCH   5   6
HETATM    6  C   UNL     1      30.658 -17.915 -16.173  1.00  0.00     0.010 C 
BRANCH   6   7
HETATM    7  C   UNL     1      30.232 -16.603 -15.503  1.00  0.00     0.001 C 
BRANCH   7   8
HETATM    8  C   UNL     1      31.453 -15.749 -15.148  1.00  0.00     0.000 C 
BRANCH   8   9
HETATM    9  C   UNL     1      32.193 -15.291 -16.410  1.00  0.00     0.000 C 
BRANCH   9  10
HETATM   10  C   UNL     1      33.023 -14.034 -16.128  1.00  0.00     0.004 C 
BRANCH  10  11
HETATM   11  C   UNL     1      32.532 -12.843 -16.955  1.00  0.00     0.027 C 
BRANCH  11  12
HETATM   12  C   UNL     1      32.370 -11.641 -16.056  1.00  0.00    -0.031 C 
HETATM   13  C   UNL     1      31.347 -11.397 -15.211  1.00  0.00    -0.031 C 
BRANCH  13  14
HETATM   14  C   UNL     1      30.129 -12.266 -14.980  1.00  0.00     0.027 C 
BRANCH  14  15
HETATM   15  C   UNL     1      29.109 -12.110 -16.121  1.00  0.00     0.004 C 
BRANCH  15  16
HETATM   16  C   UNL     1      28.746 -13.428 -16.835  1.00  0.00     0.000 C 
BRANCH  16  17
HETATM   17  C   UNL     1      28.726 -13.302 -18.368  1.00  0.00     0.000 C 
BRANCH  17  18
HETATM   18  C   UNL     1      29.823 -14.163 -19.008  1.00  0.00     0.000 C 
BRANCH  18  19
HETATM   19  C   UNL     1      29.417 -15.642 -19.030  1.00  0.00    -0.000 C 
BRANCH  19  20
HETATM   20  C   UNL     1      30.543 -16.514 -19.597  1.00  0.00    -0.005 C 
HETATM   21  C   UNL     1      31.722 -15.662 -20.057  1.00  0.00     0.005 C 
ENDBRANCH  19  20
ENDBRANCH  18  19
ENDBRANCH  17  18
ENDBRANCH  16  17
ENDBRANCH  15  16
ENDBRANCH  14  15
ENDBRANCH  13  14
ENDBRANCH  11  12
ENDBRANCH  10  11
ENDBRANCH   9  10
ENDBRANCH   8   9
ENDBRANCH   7   8
ENDBRANCH   6   7
ENDBRANCH   5   6
ENDBRANCH   3   5
ENDBRANCH   1   3
TORSDOF 16
ENDMDL
MODEL 10
REMARK VINA RESULT:      -4.7     24.899     26.993
REMARK  16 active torsions:
REMARK  status: ('A' for Active; 'I' for Inactive)
REMARK    1  A    between atoms: O_1  and  C_20 
REMARK    2  A    between atoms: C_3  and  C_4 
REMARK    3  A    between atoms: C_3  and  C_5 
REMARK    4  A    between atoms: C_4  and  C_8 
REMARK    5  A    between atoms: C_5  and  C_11 
REMARK    6  A    between atoms: C_6  and  C_7 
REMARK    7  A    between atoms: C_6  and  C_9 
REMARK    8  A    between atoms: C_7  and  C_10 
REMARK    9  A    between atoms: C_8  and  C_12 
REMARK   10  A    between atoms: C_9  and  C_13 
REMARK   11  A    between atoms: C_10  and  C_14 
REMARK   12  A    between atoms: C_11  and  C_15 
REMARK   13  A    between atoms: C_12  and  C_16 
REMARK   14  A    between atoms: C_13  and  C_17 
REMARK   15  A    between atoms: C_14  and  C_18 
REMARK   16  A    between atoms: C_18  and  C_20 
ROOT
HETATM    1  O   UNL     1      31.768 -21.113 -10.107  1.00  0.00    -0.776 OA
HETATM    2  H   UNL     1      32.645 -20.708 -10.174  1.00  0.00     0.167 HD
ENDROOT
BRANCH   1   3
HETATM    3  C   UNL     1      30.683 -20.393  -9.755  1.00  0.00     0.139 C 
HETATM    4  O   UNL     1      29.974 -20.776  -8.833  1.00  0.00    -0.650 OA
BRANCH   3   5
HETATM    5  C   UNL     1      30.369 -19.127 -10.508  1.00  0.00     0.110 C 
BRANCH   5   6
HETATM    6  C   UNL     1      30.097 -17.930  -9.587  1.00  0.00     0.010 C 
BRANCH   6   7
HETATM    7  C   UNL     1      31.338 -17.036  -9.466  1.00  0.00     0.001 C 
BRANCH   7   8
HETATM    8  C   UNL     1      31.557 -16.599  -8.014  1.00  0.00     0.000 C 
BRANCH   8   9
HETATM    9  C   UNL     1      30.597 -17.330  -7.067  1.00  0.00     0.000 C 
BRANCH   9  10
HETATM   10  C   UNL     1      29.891 -16.337  -6.138  1.00  0.00     0.004 C 
BRANCH  10  11
HETATM   11  C   UNL     1      30.123 -14.891  -6.585  1.00  0.00     0.027 C 
BRANCH  11  12
HETATM   12  C   UNL     1      28.792 -14.194  -6.737  1.00  0.00    -0.031 C 
HETATM   13  C   UNL     1      28.060 -14.089  -7.864  1.00  0.00    -0.031 C 
BRANCH  13  14
HETATM   14  C   UNL     1      28.408 -14.638  -9.232  1.00  0.00     0.027 C 
BRANCH  14  15
HETATM   15  C   UNL     1      28.021 -13.647 -10.344  1.00  0.00     0.004 C 
BRANCH  15  16
HETATM   16  C   UNL     1      29.222 -12.985 -11.051  1.00  0.00     0.000 C 
BRANCH  16  17
HETATM   17  C   UNL     1      29.554 -11.588 -10.502  1.00  0.00     0.000 C 
BRANCH  17  18
HETATM   18  C   UNL     1      31.040 -11.476 -10.136  1.00  0.00     0.000 C 
BRANCH  18  19
HETATM   19  C   UNL     1      31.393 -12.415  -8.976  1.00  0.00    -0.000 C 
BRANCH  19  20
HETATM   20  C   UNL     1      32.553 -11.854  -8.145  1.00  0.00    -0.005 C 
HETATM   21  C   UNL     1      32.184 -11.774  -6.667  1.00  0.00     0.005 C 
ENDBRANCH  19  20
ENDBRANCH  18  19
ENDBRANCH  17  18
ENDBRANCH  16  17
ENDBRANCH  15  16
ENDBRANCH  14  15
ENDBRANCH  13  14
ENDBRANCH  11  12
ENDBRANCH  10  11
ENDBRANCH   9  10
ENDBRANCH   8   9
ENDBRANCH   7   8
ENDBRANCH   6   7
ENDBRANCH   5   6
ENDBRANCH   3   5
ENDBRANCH   1   3
TORSDOF 16
ENDMDL
MODEL 11
REMARK VINA RESULT:      -4.7      2.946      4.646
REMARK  16 active torsions:
REMARK  status: ('A' for Active; 'I' for Inactive)
REMARK    1  A    between atoms: O_1  and  C_20 
REMARK    2  A    between atoms: C_3  and  C_4 
REMARK    3  A    between atoms: C_3  and  C_5 
REMARK    4  A    between atoms: C_4  and  C_8 
REMARK    5  A    between atoms: C_5  and  C_11 
REMARK    6  A    between atoms: C_6  and  C_7 
REMARK    7  A    between atoms: C_6  and  C_9 
REMARK    8  A    between atoms: C_7  and  C_10 
REMARK    9  A    between atoms: C_8  and  C_12 
REMARK   10  A    between atoms: C_9  and  C_13 
REMARK   11  A    between atoms: C_10  and  C_14 
REMARK   12  A    between atoms: C_11  and  C_15 
REMARK   13  A    between atoms: C_12  and  C_16 
REMARK   14  A    between atoms: C_13  and  C_17 
REMARK   15  A    between atoms: C_14  and  C_18 
REMARK   16  A    between atoms: C_18  and  C_20 
ROOT
HETATM    1  O   UNL     1      40.944  12.747 -11.737  1.00  0.00    -0.776 OA
HETATM    2  H   UNL     1      41.328  13.621 -11.900  1.00  0.00     0.167 HD
ENDROOT
BRANCH   1   3
HETATM    3  C   UNL     1      41.709  11.696 -11.377  1.00  0.00     0.139 C 
HETATM    4  O   UNL     1      42.926  11.765 -11.489  1.00  0.00    -0.650 OA
BRANCH   3   5
HETATM    5  C   UNL     1      41.044  10.456 -10.841  1.00  0.00     0.110 C 
BRANCH   5   6
HETATM    6  C   UNL     1      41.584  10.025  -9.471  1.00  0.00     0.010 C 
BRANCH   6   7
HETATM    7  C   UNL     1      40.489  10.100  -8.400  1.00  0.00     0.001 C 
BRANCH   7   8
HETATM    8  C   UNL     1      40.356   8.765  -7.659  1.00  0.00     0.000 C 
BRANCH   8   9
HETATM    9  C   UNL     1      39.069   8.036  -8.062  1.00  0.00     0.000 C 
BRANCH   9  10
HETATM   10  C   UNL     1      38.239   8.892  -9.025  1.00  0.00     0.004 C 
BRANCH  10  11
HETATM   11  C   UNL     1      37.790   8.084 -10.246  1.00  0.00     0.027 C 
BRANCH  11  12
HETATM   12  C   UNL     1      38.897   7.143 -10.659  1.00  0.00    -0.031 C 
HETATM   13  C   UNL     1      39.447   7.035 -11.885  1.00  0.00    -0.031 C 
BRANCH  13  14
HETATM   14  C   UNL     1      39.078   7.823 -13.124  1.00  0.00     0.027 C 
BRANCH  14  15
HETATM   15  C   UNL     1      40.323   8.454 -13.773  1.00  0.00     0.004 C 
BRANCH  15  16
HETATM   16  C   UNL     1      40.288   8.488 -15.315  1.00  0.00     0.000 C 
BRANCH  16  17
HETATM   17  C   UNL     1      39.031   9.171 -15.878  1.00  0.00     0.000 C 
BRANCH  17  18
HETATM   18  C   UNL     1      38.796   8.777 -17.342  1.00  0.00     0.000 C 
BRANCH  18  19
HETATM   19  C   UNL     1      39.556   7.493 -17.694  1.00  0.00    -0.000 C 
BRANCH  19  20
HETATM   20  C   UNL     1      40.141   7.568 -19.109  1.00  0.00    -0.005 C 
HETATM   21  C   UNL     1      41.147   8.709 -19.229  1.00  0.00     0.005 C 
ENDBRANCH  19  20
ENDBRANCH  18  19
ENDBRANCH  17  18
ENDBRANCH  16  17
ENDBRANCH  15  16
ENDBRANCH  14  15
ENDBRANCH  13  14
ENDBRANCH  11  12
ENDBRANCH  10  11
ENDBRANCH   9  10
ENDBRANCH   8   9
ENDBRANCH   7   8
ENDBRANCH   6   7
ENDBRANCH   5   6
ENDBRANCH   3   5
ENDBRANCH   1   3
TORSDOF 16
ENDMDL
MODEL 12
REMARK VINA RESULT:      -4.7     24.117     25.645
REMARK  16 active torsions:
REMARK  status: ('A' for Active; 'I' for Inactive)
REMARK    1  A    between atoms: O_1  and  C_20 
REMARK    2  A    between atoms: C_3  and  C_4 
REMARK    3  A    between atoms: C_3  and  C_5 
REMARK    4  A    between atoms: C_4  and  C_8 
REMARK    5  A    between atoms: C_5  and  C_11 
REMARK    6  A    between atoms: C_6  and  C_7 
REMARK    7  A    between atoms: C_6  and  C_9 
REMARK    8  A    between atoms: C_7  and  C_10 
REMARK    9  A    between atoms: C_8  and  C_12 
REMARK   10  A    between atoms: C_9  and  C_13 
REMARK   11  A    between atoms: C_10  and  C_14 
REMARK   12  A    between atoms: C_11  and  C_15 
REMARK   13  A    between atoms: C_12  and  C_16 
REMARK   14  A    between atoms: C_13  and  C_17 
REMARK   15  A    between atoms: C_14  and  C_18 
REMARK   16  A    between atoms: C_18  and  C_20 
ROOT
HETATM    1  O   UNL     1      31.754 -21.078 -15.015  1.00  0.00    -0.776 OA
HETATM    2  H   UNL     1      32.304 -21.608 -14.421  1.00  0.00     0.167 HD
ENDROOT
BRANCH   1   3
HETATM    3  C   UNL     1      30.722 -20.342 -14.551  1.00  0.00     0.139 C 
HETATM    4  O   UNL     1      29.924 -20.842 -13.769  1.00  0.00    -0.650 OA
BRANCH   3   5
HETATM    5  C   UNL     1      30.577 -18.915 -15.009  1.00  0.00     0.110 C 
BRANCH   5   6
HETATM    6  C   UNL     1      30.281 -18.791 -16.510  1.00  0.00     0.010 C 
BRANCH   6   7
HETATM    7  C   UNL     1      30.575 -17.372 -17.012  1.00  0.00     0.001 C 
BRANCH   7   8
HETATM    8  C   UNL     1      31.337 -16.565 -15.956  1.00  0.00     0.000 C 
BRANCH   8   9
HETATM    9  C   UNL     1      32.086 -15.389 -16.594  1.00  0.00     0.000 C 
BRANCH   9  10
HETATM   10  C   UNL     1      31.450 -15.002 -17.933  1.00  0.00     0.004 C 
BRANCH  10  11
HETATM   11  C   UNL     1      31.982 -13.659 -18.438  1.00  0.00     0.027 C 
BRANCH  11  12
HETATM   12  C   UNL     1      33.423 -13.499 -18.014  1.00  0.00    -0.031 C 
HETATM   13  C   UNL     1      33.995 -12.389 -17.504  1.00  0.00    -0.031 C 
BRANCH  13  14
HETATM   14  C   UNL     1      33.328 -11.054 -17.249  1.00  0.00     0.027 C 
BRANCH  14  15
HETATM   15  C   UNL     1      33.355 -10.695 -15.753  1.00  0.00     0.004 C 
BRANCH  15  16
HETATM   16  C   UNL     1      32.001 -10.861 -15.034  1.00  0.00     0.000 C 
BRANCH  16  17
HETATM   17  C   UNL     1      31.760 -12.290 -14.520  1.00  0.00     0.000 C 
BRANCH  17  18
HETATM   18  C   UNL     1      30.299 -12.711 -14.724  1.00  0.00     0.000 C 
BRANCH  18  19
HETATM   19  C   UNL     1      29.725 -12.101 -16.008  1.00  0.00    -0.000 C 
BRANCH  19  20
HETATM   20  C   UNL     1      28.618 -12.985 -16.593  1.00  0.00    -0.005 C 
HETATM   21  C   UNL     1      28.445 -14.263 -15.777  1.00  0.00     0.005 C 
ENDBRANCH  19  20
ENDBRANCH  18  19
ENDBRANCH  17  18
ENDBRANCH  16  17
ENDBRANCH  15  16
ENDBRANCH  14  15
ENDBRANCH  13  14
ENDBRANCH  11  12
ENDBRANCH  10  11
ENDBRANCH   9  10
ENDBRANCH   8   9
ENDBRANCH   7   8
ENDBRANCH   6   7
ENDBRANCH   5   6
ENDBRANCH   3   5
ENDBRANCH   1   3
TORSDOF 16
ENDMDL
MODEL 13
REMARK VINA RESULT:      -4.7      4.661     10.448
REMARK  16 active torsions:
REMARK  status: ('A' for Active; 'I' for Inactive)
REMARK    1  A    between atoms: O_1  and  C_20 
REMARK    2  A    between atoms: C_3  and  C_4 
REMARK    3  A    between atoms: C_3  and  C_5 
REMARK    4  A    between atoms: C_4  and  C_8 
REMARK    5  A    between atoms: C_5  and  C_11 
REMARK    6  A    between atoms: C_6  and  C_7 
REMARK    7  A    between atoms: C_6  and  C_9 
REMARK    8  A    between atoms: C_7  and  C_10 
REMARK    9  A    between atoms: C_8  and  C_12 
REMARK   10  A    between atoms: C_9  and  C_13 
REMARK   11  A    between atoms: C_10  and  C_14 
REMARK   12  A    between atoms: C_11  and  C_15 
REMARK   13  A    between atoms: C_12  and  C_16 
REMARK   14  A    between atoms: C_13  and  C_17 
REMARK   15  A    between atoms: C_14  and  C_18 
REMARK   16  A    between atoms: C_18  and  C_20 
ROOT
HETATM    1  O   UNL     1      38.137   6.708 -19.960  1.00  0.00    -0.776 OA
HETATM    2  H   UNL     1      37.856   6.758 -20.885  1.00  0.00     0.167 HD
ENDROOT
BRANCH   1   3
HETATM    3  C   UNL     1      39.272   7.301 -19.535  1.00  0.00     0.139 C 
HETATM    4  O   UNL     1      40.082   7.718 -20.352  1.00  0.00    -0.650 OA
BRANCH   3   5
HETATM    5  C   UNL     1      39.516   7.438 -18.055  1.00  0.00     0.110 C 
BRANCH   5   6
HETATM    6  C   UNL     1      38.603   8.475 -17.386  1.00  0.00     0.010 C 
BRANCH   6   7
HETATM    7  C   UNL     1      39.378   9.755 -17.050  1.00  0.00     0.001 C 
BRANCH   7   8
HETATM    8  C   UNL     1      40.708   9.425 -16.363  1.00  0.00     0.000 C 
BRANCH   8   9
HETATM    9  C   UNL     1      40.548   9.393 -14.839  1.00  0.00     0.000 C 
BRANCH   9  10
HETATM   10  C   UNL     1      40.697   7.964 -14.307  1.00  0.00     0.004 C 
BRANCH  10  11
HETATM   11  C   UNL     1      39.348   7.388 -13.868  1.00  0.00     0.027 C 
BRANCH  11  12
HETATM   12  C   UNL     1      38.721   8.303 -12.843  1.00  0.00    -0.031 C 
HETATM   13  C   UNL     1      38.761   8.160 -11.503  1.00  0.00    -0.031 C 
BRANCH  13  14
HETATM   14  C   UNL     1      39.432   7.049 -10.723  1.00  0.00     0.027 C 
BRANCH  14  15
HETATM   15  C   UNL     1      40.288   7.614  -9.575  1.00  0.00     0.004 C 
BRANCH  15  16
HETATM   16  C   UNL     1      40.397   9.153  -9.561  1.00  0.00     0.000 C 
BRANCH  16  17
HETATM   17  C   UNL     1      39.922   9.782  -8.240  1.00  0.00     0.000 C 
BRANCH  17  18
HETATM   18  C   UNL     1      40.130   8.819  -7.063  1.00  0.00     0.000 C 
BRANCH  18  19
HETATM   19  C   UNL     1      38.790   8.431  -6.428  1.00  0.00    -0.000 C 
BRANCH  19  20
HETATM   20  C   UNL     1      38.827   8.611  -4.906  1.00  0.00    -0.005 C 
HETATM   21  C   UNL     1      39.160   7.299  -4.204  1.00  0.00     0.005 C 
ENDBRANCH  19  20
ENDBRANCH  18  19
ENDBRANCH  17  18
ENDBRANCH  16  17
ENDBRANCH  15  16
ENDBRANCH  14  15
ENDBRANCH  13  14
ENDBRANCH  11  12
ENDBRANCH  10  11
ENDBRANCH   9  10
ENDBRANCH   8   9
ENDBRANCH   7   8
ENDBRANCH   6   7
ENDBRANCH   5   6
ENDBRANCH   3   5
ENDBRANCH   1   3
TORSDOF 16
ENDMDL
MODEL 14
REMARK VINA RESULT:      -4.7     24.897     27.321
REMARK  16 active torsions:
REMARK  status: ('A' for Active; 'I' for Inactive)
REMARK    1  A    between atoms: O_1  and  C_20 
REMARK    2  A    between atoms: C_3  and  C_4 
REMARK    3  A    between atoms: C_3  and  C_5 
REMARK    4  A    between atoms: C_4  and  C_8 
REMARK    5  A    between atoms: C_5  and  C_11 
REMARK    6  A    between atoms: C_6  and  C_7 
REMARK    7  A    between atoms: C_6  and  C_9 
REMARK    8  A    between atoms: C_7  and  C_10 
REMARK    9  A    between atoms: C_8  and  C_12 
REMARK   10  A    between atoms: C_9  and  C_13 
REMARK   11  A    between atoms: C_10  and  C_14 
REMARK   12  A    between atoms: C_11  and  C_15 
REMARK   13  A    between atoms: C_12  and  C_16 
REMARK   14  A    between atoms: C_13  and  C_17 
REMARK   15  A    between atoms: C_14  and  C_18 
REMARK   16  A    between atoms: C_18  and  C_20 
ROOT
HETATM    1  O   UNL     1      30.217 -21.356  -9.440  1.00  0.00    -0.776 OA
HETATM    2  H   UNL     1      30.669 -22.171  -9.180  1.00  0.00     0.167 HD
ENDROOT
BRANCH   1   3
HETATM    3  C   UNL     1      30.832 -20.417 -10.189  1.00  0.00     0.139 C 
HETATM    4  O   UNL     1      31.236 -20.701 -11.309  1.00  0.00    -0.650 OA
BRANCH   3   5
HETATM    5  C   UNL     1      31.008 -19.031  -9.624  1.00  0.00     0.110 C 
BRANCH   5   6
HETATM    6  C   UNL     1      29.828 -18.581  -8.753  1.00  0.00     0.010 C 
BRANCH   6   7
HETATM    7  C   UNL     1      30.279 -18.311  -7.312  1.00  0.00     0.001 C 
BRANCH   7   8
HETATM    8  C   UNL     1      30.332 -16.806  -7.029  1.00  0.00     0.000 C 
BRANCH   8   9
HETATM    9  C   UNL     1      31.372 -16.484  -5.949  1.00  0.00     0.000 C 
BRANCH   9  10
HETATM   10  C   UNL     1      32.042 -15.134  -6.225  1.00  0.00     0.004 C 
BRANCH  10  11
HETATM   11  C   UNL     1      32.152 -14.862  -7.728  1.00  0.00     0.027 C 
BRANCH  11  12
HETATM   12  C   UNL     1      32.515 -13.413  -7.950  1.00  0.00    -0.031 C 
HETATM   13  C   UNL     1      31.929 -12.558  -8.811  1.00  0.00    -0.031 C 
BRANCH  13  14
HETATM   14  C   UNL     1      30.783 -12.856  -9.755  1.00  0.00     0.027 C 
BRANCH  14  15
HETATM   15  C   UNL     1      29.440 -12.392  -9.164  1.00  0.00     0.004 C 
BRANCH  15  16
HETATM   16  C   UNL     1      28.300 -13.423  -9.290  1.00  0.00     0.000 C 
BRANCH  16  17
HETATM   17  C   UNL     1      27.821 -13.967  -7.934  1.00  0.00     0.000 C 
BRANCH  17  18
HETATM   18  C   UNL     1      28.775 -13.555  -6.805  1.00  0.00     0.000 C 
BRANCH  18  19
HETATM   19  C   UNL     1      28.086 -12.600  -5.823  1.00  0.00    -0.000 C 
BRANCH  19  20
HETATM   20  C   UNL     1      28.979 -11.395  -5.507  1.00  0.00    -0.005 C 
HETATM   21  C   UNL     1      30.444 -11.807  -5.405  1.00  0.00     0.005 C 
ENDBRANCH  19  20
ENDBRANCH  18  19
ENDBRANCH  17  18
ENDBRANCH  16  17
ENDBRANCH  15  16
ENDBRANCH  14  15
ENDBRANCH  13  14
ENDBRANCH  11  12
ENDBRANCH  10  11
ENDBRANCH   9  10
ENDBRANCH   8   9
ENDBRANCH   7   8
ENDBRANCH   6   7
ENDBRANCH   5   6
ENDBRANCH   3   5
ENDBRANCH   1   3
TORSDOF 16
ENDMDL
MODEL 15
REMARK VINA RESULT:      -4.6     24.831     26.270
REMARK  16 active torsions:
REMARK  status: ('A' for Active; 'I' for Inactive)
REMARK    1  A    between atoms: O_1  and  C_20 
REMARK    2  A    between atoms: C_3  and  C_4 
REMARK    3  A    between atoms: C_3  and  C_5 
REMARK    4  A    between atoms: C_4  and  C_8 
REMARK    5  A    between atoms: C_5  and  C_11 
REMARK    6  A    between atoms: C_6  and  C_7 
REMARK    7  A    between atoms: C_6  and  C_9 
REMARK    8  A    between atoms: C_7  and  C_10 
REMARK    9  A    between atoms: C_8  and  C_12 
REMARK   10  A    between atoms: C_9  and  C_13 
REMARK   11  A    between atoms: C_10  and  C_14 
REMARK   12  A    between atoms: C_11  and  C_15 
REMARK   13  A    between atoms: C_12  and  C_16 
REMARK   14  A    between atoms: C_13  and  C_17 
REMARK   15  A    between atoms: C_14  and  C_18 
REMARK   16  A    between atoms: C_18  and  C_20 
ROOT
HETATM    1  O   UNL     1      32.607 -20.201 -14.185  1.00  0.00    -0.776 OA
HETATM    2  H   UNL     1      32.773 -19.691 -13.379  1.00  0.00     0.167 HD
ENDROOT
BRANCH   1   3
HETATM    3  C   UNL     1      31.363 -20.340 -14.688  1.00  0.00     0.139 C 
HETATM    4  O   UNL     1      31.195 -20.954 -15.733  1.00  0.00    -0.650 OA
BRANCH   3   5
HETATM    5  C   UNL     1      30.202 -19.732 -13.945  1.00  0.00     0.110 C 
BRANCH   5   6
HETATM    6  C   UNL     1      30.566 -19.275 -12.526  1.00  0.00     0.010 C 
BRANCH   6   7
HETATM    7  C   UNL     1      30.102 -17.834 -12.277  1.00  0.00     0.001 C 
BRANCH   7   8
HETATM    8  C   UNL     1      31.111 -17.077 -11.406  1.00  0.00     0.000 C 
BRANCH   8   9
HETATM    9  C   UNL     1      31.277 -15.631 -11.886  1.00  0.00     0.000 C 
BRANCH   9  10
HETATM   10  C   UNL     1      30.336 -14.693 -11.123  1.00  0.00     0.004 C 
BRANCH  10  11
HETATM   11  C   UNL     1      29.850 -13.545 -12.012  1.00  0.00     0.027 C 
BRANCH  11  12
HETATM   12  C   UNL     1      30.899 -12.460 -12.048  1.00  0.00    -0.031 C 
HETATM   13  C   UNL     1      31.704 -12.152 -13.084  1.00  0.00    -0.031 C 
BRANCH  13  14
HETATM   14  C   UNL     1      31.746 -12.826 -14.439  1.00  0.00     0.027 C 
BRANCH  14  15
HETATM   15  C   UNL     1      31.339 -11.852 -15.559  1.00  0.00     0.004 C 
BRANCH  15  16
HETATM   16  C   UNL     1      30.090 -12.283 -16.355  1.00  0.00     0.000 C 
BRANCH  16  17
HETATM   17  C   UNL     1      28.770 -11.885 -15.674  1.00  0.00     0.000 C 
BRANCH  17  18
HETATM   18  C   UNL     1      28.032 -13.117 -15.136  1.00  0.00     0.000 C 
BRANCH  18  19
HETATM   19  C   UNL     1      28.427 -14.378 -15.914  1.00  0.00    -0.000 C 
BRANCH  19  20
HETATM   20  C   UNL     1      28.954 -15.466 -14.972  1.00  0.00    -0.005 C 
HETATM   21  C   UNL     1      30.259 -16.060 -15.491  1.00  0.00     0.005 C 
ENDBRANCH  19  20
ENDBRANCH  18  19
ENDBRANCH  17  18
ENDBRANCH  16  17
ENDBRANCH  15  16
ENDBRANCH  14  15
ENDBRANCH  13  14
ENDBRANCH  11  12
ENDBRANCH  10  11
ENDBRANCH   9  10
ENDBRANCH   8   9
ENDBRANCH   7   8
ENDBRANCH   6   7
ENDBRANCH   5   6
ENDBRANCH   3   5
ENDBRANCH   1   3
TORSDOF 16
ENDMDL
MODEL 16
REMARK VINA RESULT:      -4.6      2.376      3.551
REMARK  16 active torsions:
REMARK  status: ('A' for Active; 'I' for Inactive)
REMARK    1  A    between atoms: O_1  and  C_20 
REMARK    2  A    between atoms: C_3  and  C_4 
REMARK    3  A    between atoms: C_3  and  C_5 
REMARK    4  A    between atoms: C_4  and  C_8 
REMARK    5  A    between atoms: C_5  and  C_11 
REMARK    6  A    between atoms: C_6  and  C_7 
REMARK    7  A    between atoms: C_6  and  C_9 
REMARK    8  A    between atoms: C_7  and  C_10 
REMARK    9  A    between atoms: C_8  and  C_12 
REMARK   10  A    between atoms: C_9  and  C_13 
REMARK   11  A    between atoms: C_10  and  C_14 
REMARK   12  A    between atoms: C_11  and  C_15 
REMARK   13  A    between atoms: C_12  and  C_16 
REMARK   14  A    between atoms: C_13  and  C_17 
REMARK   15  A    between atoms: C_14  and  C_18 
REMARK   16  A    between atoms: C_18  and  C_20 
ROOT
HETATM    1  O   UNL     1      41.407  10.790  -6.789  1.00  0.00    -0.776 OA
HETATM    2  H   UNL     1      41.648  11.500  -6.176  1.00  0.00     0.167 HD
ENDROOT
BRANCH   1   3
HETATM    3  C   UNL     1      40.564   9.801  -6.426  1.00  0.00     0.139 C 
HETATM    4  O   UNL     1      40.642   9.318  -5.304  1.00  0.00    -0.650 OA
BRANCH   3   5
HETATM    5  C   UNL     1      39.540   9.313  -7.416  1.00  0.00     0.110 C 
BRANCH   5   6
HETATM    6  C   UNL     1      39.480   7.782  -7.517  1.00  0.00     0.010 C 
BRANCH   6   7
HETATM    7  C   UNL     1      39.575   7.323  -8.977  1.00  0.00     0.001 C 
BRANCH   7   8
HETATM    8  C   UNL     1      38.433   7.914  -9.811  1.00  0.00     0.000 C 
BRANCH   8   9
HETATM    9  C   UNL     1      38.830   8.027 -11.288  1.00  0.00     0.000 C 
BRANCH   9  10
HETATM   10  C   UNL     1      38.227   9.287 -11.917  1.00  0.00     0.004 C 
BRANCH  10  11
HETATM   11  C   UNL     1      39.268  10.055 -12.736  1.00  0.00     0.027 C 
BRANCH  11  12
HETATM   12  C   UNL     1      40.364   9.109 -13.168  1.00  0.00    -0.031 C 
HETATM   13  C   UNL     1      41.317   9.348 -14.091  1.00  0.00    -0.031 C 
BRANCH  13  14
HETATM   14  C   UNL     1      41.501  10.609 -14.909  1.00  0.00     0.027 C 
BRANCH  14  15
HETATM   15  C   UNL     1      40.550  10.631 -16.119  1.00  0.00     0.004 C 
BRANCH  15  16
HETATM   16  C   UNL     1      41.183  10.136 -17.435  1.00  0.00     0.000 C 
BRANCH  16  17
HETATM   17  C   UNL     1      40.709   8.733 -17.846  1.00  0.00     0.000 C 
BRANCH  17  18
HETATM   18  C   UNL     1      39.355   8.397 -17.207  1.00  0.00     0.000 C 
BRANCH  18  19
HETATM   19  C   UNL     1      39.441   7.106 -16.384  1.00  0.00    -0.000 C 
BRANCH  19  20
HETATM   20  C   UNL     1      38.378   7.083 -15.279  1.00  0.00    -0.005 C 
HETATM   21  C   UNL     1      37.475   8.311 -15.359  1.00  0.00     0.005 C 
ENDBRANCH  19  20
ENDBRANCH  18  19
ENDBRANCH  17  18
ENDBRANCH  16  17
ENDBRANCH  15  16
ENDBRANCH  14  15
ENDBRANCH  13  14
ENDBRANCH  11  12
ENDBRANCH  10  11
ENDBRANCH   9  10
ENDBRANCH   8   9
ENDBRANCH   7   8
ENDBRANCH   6   7
ENDBRANCH   5   6
ENDBRANCH   3   5
ENDBRANCH   1   3
TORSDOF 16
ENDMDL
MODEL 17
REMARK VINA RESULT:      -4.6     24.789     26.797
REMARK  16 active torsions:
REMARK  status: ('A' for Active; 'I' for Inactive)
REMARK    1  A    between atoms: O_1  and  C_20 
REMARK    2  A    between atoms: C_3  and  C_4 
REMARK    3  A    between atoms: C_3  and  C_5 
REMARK    4  A    between atoms: C_4  and  C_8 
REMARK    5  A    between atoms: C_5  and  C_11 
REMARK    6  A    between atoms: C_6  and  C_7 
REMARK    7  A    between atoms: C_6  and  C_9 
REMARK    8  A    between atoms: C_7  and  C_10 
REMARK    9  A    between atoms: C_8  and  C_12 
REMARK   10  A    between atoms: C_9  and  C_13 
REMARK   11  A    between atoms: C_10  and  C_14 
REMARK   12  A    between atoms: C_11  and  C_15 
REMARK   13  A    between atoms: C_12  and  C_16 
REMARK   14  A    between atoms: C_13  and  C_17 
REMARK   15  A    between atoms: C_14  and  C_18 
REMARK   16  A    between atoms: C_18  and  C_20 
ROOT
HETATM    1  O   UNL     1      31.823 -20.969 -10.085  1.00  0.00    -0.776 OA
HETATM    2  H   UNL     1      31.616 -21.861 -10.398  1.00  0.00     0.167 HD
ENDROOT
BRANCH   1   3
HETATM    3  C   UNL     1      31.166 -20.417  -9.044  1.00  0.00     0.139 C 
HETATM    4  O   UNL     1      31.634 -20.502  -7.916  1.00  0.00    -0.650 OA
BRANCH   3   5
HETATM    5  C   UNL     1      29.864 -19.704  -9.297  1.00  0.00     0.110 C 
BRANCH   5   6
HETATM    6  C   UNL     1      29.918 -18.209  -8.952  1.00  0.00     0.010 C 
BRANCH   6   7
HETATM    7  C   UNL     1      30.896 -17.468  -9.872  1.00  0.00     0.001 C 
BRANCH   7   8
HETATM    8  C   UNL     1      31.813 -16.542  -9.065  1.00  0.00     0.000 C 
BRANCH   8   9
HETATM    9  C   UNL     1      32.412 -15.447  -9.954  1.00  0.00     0.000 C 
BRANCH   9  10
HETATM   10  C   UNL     1      31.708 -15.405 -11.314  1.00  0.00     0.004 C 
BRANCH  10  11
HETATM   11  C   UNL     1      32.022 -14.110 -12.066  1.00  0.00     0.027 C 
BRANCH  11  12
HETATM   12  C   UNL     1      31.609 -12.927 -11.223  1.00  0.00    -0.031 C 
HETATM   13  C   UNL     1      30.456 -12.235 -11.316  1.00  0.00    -0.031 C 
BRANCH  13  14
HETATM   14  C   UNL     1      29.321 -12.478 -12.289  1.00  0.00     0.027 C 
BRANCH  14  15
HETATM   15  C   UNL     1      28.357 -13.555 -11.760  1.00  0.00     0.004 C 
BRANCH  15  16
HETATM   16  C   UNL     1      28.067 -13.464 -10.248  1.00  0.00     0.000 C 
BRANCH  16  17
HETATM   17  C   UNL     1      28.474 -14.729  -9.475  1.00  0.00     0.000 C 
BRANCH  17  18
HETATM   18  C   UNL     1      28.745 -14.412  -7.998  1.00  0.00     0.000 C 
BRANCH  18  19
HETATM   19  C   UNL     1      29.519 -13.098  -7.851  1.00  0.00    -0.000 C 
BRANCH  19  20
HETATM   20  C   UNL     1      30.950 -13.351  -7.361  1.00  0.00    -0.005 C 
HETATM   21  C   UNL     1      31.845 -12.145  -7.626  1.00  0.00     0.005 C 
ENDBRANCH  19  20
ENDBRANCH  18  19
ENDBRANCH  17  18
ENDBRANCH  16  17
ENDBRANCH  15  16
ENDBRANCH  14  15
ENDBRANCH  13  14
ENDBRANCH  11  12
ENDBRANCH  10  11
ENDBRANCH   9  10
ENDBRANCH   8   9
ENDBRANCH   7   8
ENDBRANCH   6   7
ENDBRANCH   5   6
ENDBRANCH   3   5
ENDBRANCH   1   3
TORSDOF 16
ENDMDL
MODEL 18
REMARK VINA RESULT:      -4.6     25.024     26.286
REMARK  16 active torsions:
REMARK  status: ('A' for Active; 'I' for Inactive)
REMARK    1  A    between atoms: O_1  and  C_20 
REMARK    2  A    between atoms: C_3  and  C_4 
REMARK    3  A    between atoms: C_3  and  C_5 
REMARK    4  A    between atoms: C_4  and  C_8 
REMARK    5  A    between atoms: C_5  and  C_11 
REMARK    6  A    between atoms: C_6  and  C_7 
REMARK    7  A    between atoms: C_6  and  C_9 
REMARK    8  A    between atoms: C_7  and  C_10 
REMARK    9  A    between atoms: C_8  and  C_12 
REMARK   10  A    between atoms: C_9  and  C_13 
REMARK   11  A    between atoms: C_10  and  C_14 
REMARK   12  A    between atoms: C_11  and  C_15 
REMARK   13  A    between atoms: C_12  and  C_16 
REMARK   14  A    between atoms: C_13  and  C_17 
REMARK   15  A    between atoms: C_14  and  C_18 
REMARK   16  A    between atoms: C_18  and  C_20 
ROOT
HETATM    1  O   UNL     1      31.693 -21.003 -10.253  1.00  0.00    -0.776 OA
HETATM    2  H   UNL     1      32.618 -20.866 -10.499  1.00  0.00     0.167 HD
ENDROOT
BRANCH   1   3
HETATM    3  C   UNL     1      31.097 -20.253  -9.302  1.00  0.00     0.139 C 
HETATM    4  O   UNL     1      31.311 -20.490  -8.120  1.00  0.00    -0.650 OA
BRANCH   3   5
HETATM    5  C   UNL     1      30.178 -19.136  -9.720  1.00  0.00     0.110 C 
BRANCH   5   6
HETATM    6  C   UNL     1      30.876 -18.071 -10.578  1.00  0.00     0.010 C 
BRANCH   6   7
HETATM    7  C   UNL     1      30.149 -17.878 -11.914  1.00  0.00     0.001 C 
BRANCH   7   8
HETATM    8  C   UNL     1      30.478 -19.016 -12.886  1.00  0.00     0.000 C 
BRANCH   8   9
HETATM    9  C   UNL     1      30.844 -18.471 -14.271  1.00  0.00     0.000 C 
BRANCH   9  10
HETATM   10  C   UNL     1      31.575 -17.130 -14.151  1.00  0.00     0.004 C 
BRANCH  10  11
HETATM   11  C   UNL     1      31.133 -16.153 -15.243  1.00  0.00     0.027 C 
BRANCH  11  12
HETATM   12  C   UNL     1      29.642 -15.933 -15.146  1.00  0.00    -0.031 C 
HETATM   13  C   UNL     1      29.000 -15.132 -14.272  1.00  0.00    -0.031 C 
BRANCH  13  14
HETATM   14  C   UNL     1      29.625 -14.280 -13.187  1.00  0.00     0.027 C 
BRANCH  14  15
HETATM   15  C   UNL     1      29.252 -12.797 -13.360  1.00  0.00     0.004 C 
BRANCH  15  16
HETATM   16  C   UNL     1      29.903 -12.117 -14.582  1.00  0.00     0.000 C 
BRANCH  16  17
HETATM   17  C   UNL     1      28.923 -11.891 -15.744  1.00  0.00     0.000 C 
BRANCH  17  18
HETATM   18  C   UNL     1      29.479 -12.460 -17.055  1.00  0.00     0.000 C 
BRANCH  18  19
HETATM   19  C   UNL     1      30.970 -12.793 -16.922  1.00  0.00    -0.000 C 
BRANCH  19  20
HETATM   20  C   UNL     1      31.791 -12.093 -18.011  1.00  0.00    -0.005 C 
HETATM   21  C   UNL     1      33.014 -11.400 -17.419  1.00  0.00     0.005 C 
ENDBRANCH  19  20
ENDBRANCH  18  19
ENDBRANCH  17  18
ENDBRANCH  16  17
ENDBRANCH  15  16
ENDBRANCH  14  15
ENDBRANCH  13  14
ENDBRANCH  11  12
ENDBRANCH  10  11
ENDBRANCH   9  10
ENDBRANCH   8   9
ENDBRANCH   7   8
ENDBRANCH   6   7
ENDBRANCH   5   6
ENDBRANCH   3   5
ENDBRANCH   1   3
TORSDOF 16
ENDMDL
MODEL 19
REMARK VINA RESULT:      -4.6      1.274      1.984
REMARK  16 active torsions:
REMARK  status: ('A' for Active; 'I' for Inactive)
REMARK    1  A    between atoms: O_1  and  C_20 
REMARK    2  A    between atoms: C_3  and  C_4 
REMARK    3  A    between atoms: C_3  and  C_5 
REMARK    4  A    between atoms: C_4  and  C_8 
REMARK    5  A    between atoms: C_5  and  C_11 
REMARK    6  A    between atoms: C_6  and  C_7 
REMARK    7  A    between atoms: C_6  and  C_9 
REMARK    8  A    between atoms: C_7  and  C_10 
REMARK    9  A    between atoms: C_8  and  C_12 
REMARK   10  A    between atoms: C_9  and  C_13 
REMARK   11  A    between atoms: C_10  and  C_14 
REMARK   12  A    between atoms: C_11  and  C_15 
REMARK   13  A    between atoms: C_12  and  C_16 
REMARK   14  A    between atoms: C_13  and  C_17 
REMARK   15  A    between atoms: C_14  and  C_18 
REMARK   16  A    between atoms: C_18  and  C_20 
ROOT
HETATM    1  O   UNL     1      40.709   8.648  -7.900  1.00  0.00    -0.776 OA
HETATM    2  H   UNL     1      41.596   8.284  -8.031  1.00  0.00     0.167 HD
ENDROOT
BRANCH   1   3
HETATM    3  C   UNL     1      39.610   7.866  -7.967  1.00  0.00     0.139 C 
HETATM    4  O   UNL     1      39.571   6.819  -7.335  1.00  0.00    -0.650 OA
BRANCH   3   5
HETATM    5  C   UNL     1      38.452   8.306  -8.823  1.00  0.00     0.110 C 
BRANCH   5   6
HETATM    6  C   UNL     1      38.307   7.483 -10.111  1.00  0.00     0.010 C 
BRANCH   6   7
HETATM    7  C   UNL     1      39.654   7.353 -10.834  1.00  0.00     0.001 C 
BRANCH   7   8
HETATM    8  C   UNL     1      39.954   8.609 -11.660  1.00  0.00     0.000 C 
BRANCH   8   9
HETATM    9  C   UNL     1      38.751   9.000 -12.525  1.00  0.00     0.000 C 
BRANCH   9  10
HETATM   10  C   UNL     1      39.108   8.934 -14.014  1.00  0.00     0.004 C 
BRANCH  10  11
HETATM   11  C   UNL     1      39.773   7.602 -14.370  1.00  0.00     0.027 C 
BRANCH  11  12
HETATM   12  C   UNL     1      39.020   6.953 -15.507  1.00  0.00    -0.031 C 
HETATM   13  C   UNL     1      39.218   7.156 -16.825  1.00  0.00    -0.031 C 
BRANCH  13  14
HETATM   14  C   UNL     1      40.232   8.083 -17.463  1.00  0.00     0.027 C 
BRANCH  14  15
HETATM   15  C   UNL     1      40.017   8.180 -18.984  1.00  0.00     0.004 C 
BRANCH  15  16
HETATM   16  C   UNL     1      39.307   9.469 -19.445  1.00  0.00     0.000 C 
BRANCH  16  17
HETATM   17  C   UNL     1      37.784   9.307 -19.582  1.00  0.00     0.000 C 
BRANCH  17  18
HETATM   18  C   UNL     1      37.392   8.968 -21.026  1.00  0.00     0.000 C 
BRANCH  18  19
HETATM   19  C   UNL     1      38.409   9.539 -22.021  1.00  0.00    -0.000 C 
BRANCH  19  20
HETATM   20  C   UNL     1      38.726   8.528 -23.129  1.00  0.00    -0.005 C 
HETATM   21  C   UNL     1      39.447   7.306 -22.570  1.00  0.00     0.005 C 
ENDBRANCH  19  20
ENDBRANCH  18  19
ENDBRANCH  17  18
ENDBRANCH  16  17
ENDBRANCH  15  16
ENDBRANCH  14  15
ENDBRANCH  13  14
ENDBRANCH  11  12
ENDBRANCH  10  11
ENDBRANCH   9  10
ENDBRANCH   8   9
ENDBRANCH   7   8
ENDBRANCH   6   7
ENDBRANCH   5   6
ENDBRANCH   3   5
ENDBRANCH   1   3
TORSDOF 16
ENDMDL
MODEL 20
REMARK VINA RESULT:      -4.5      4.964      8.834
REMARK  16 active torsions:
REMARK  status: ('A' for Active; 'I' for Inactive)
REMARK    1  A    between atoms: O_1  and  C_20 
REMARK    2  A    between atoms: C_3  and  C_4 
REMARK    3  A    between atoms: C_3  and  C_5 
REMARK    4  A    between atoms: C_4  and  C_8 
REMARK    5  A    between atoms: C_5  and  C_11 
REMARK    6  A    between atoms: C_6  and  C_7 
REMARK    7  A    between atoms: C_6  and  C_9 
REMARK    8  A    between atoms: C_7  and  C_10 
REMARK    9  A    between atoms: C_8  and  C_12 
REMARK   10  A    between atoms: C_9  and  C_13 
REMARK   11  A    between atoms: C_10  and  C_14 
REMARK   12  A    between atoms: C_11  and  C_15 
REMARK   13  A    between atoms: C_12  and  C_16 
REMARK   14  A    between atoms: C_13  and  C_17 
REMARK   15  A    between atoms: C_14  and  C_18 
REMARK   16  A    between atoms: C_18  and  C_20 
ROOT
HETATM    1  O   UNL     1      42.047  13.073 -18.436  1.00  0.00    -0.776 OA
HETATM    2  H   UNL     1      42.575  13.636 -19.021  1.00  0.00     0.167 HD
ENDROOT
BRANCH   1   3
HETATM    3  C   UNL     1      42.477  11.852 -18.056  1.00  0.00     0.139 C 
HETATM    4  O   UNL     1      43.306  11.261 -18.735  1.00  0.00    -0.650 OA
BRANCH   3   5
HETATM    5  C   UNL     1      41.922  11.241 -16.796  1.00  0.00     0.110 C 
BRANCH   5   6
HETATM    6  C   UNL     1      40.908  10.120 -17.066  1.00  0.00     0.010 C 
BRANCH   6   7
HETATM    7  C   UNL     1      39.482  10.677 -17.154  1.00  0.00     0.001 C 
BRANCH   7   8
HETATM    8  C   UNL     1      39.084  11.369 -15.846  1.00  0.00     0.000 C 
BRANCH   8   9
HETATM    9  C   UNL     1      37.770  10.799 -15.298  1.00  0.00     0.000 C 
BRANCH   9  10
HETATM   10  C   UNL     1      37.283   9.630 -16.162  1.00  0.00     0.004 C 
BRANCH  10  11
HETATM   11  C   UNL     1      37.342   8.307 -15.395  1.00  0.00     0.027 C 
BRANCH  11  12
HETATM   12  C   UNL     1      38.601   7.563 -15.774  1.00  0.00    -0.031 C 
HETATM   13  C   UNL     1      39.603   7.203 -14.947  1.00  0.00    -0.031 C 
BRANCH  13  14
HETATM   14  C   UNL     1      39.699   7.467 -13.459  1.00  0.00     0.027 C 
BRANCH  14  15
HETATM   15  C   UNL     1      40.271   8.868 -13.179  1.00  0.00     0.004 C 
BRANCH  15  16
HETATM   16  C   UNL     1      39.448   9.703 -12.177  1.00  0.00     0.000 C 
BRANCH  16  17
HETATM   17  C   UNL     1      38.051   9.120 -11.906  1.00  0.00     0.000 C 
BRANCH  17  18
HETATM   18  C   UNL     1      37.864   8.805 -10.416  1.00  0.00     0.000 C 
BRANCH  18  19
HETATM   19  C   UNL     1      38.276   7.362 -10.103  1.00  0.00    -0.000 C 
BRANCH  19  20
HETATM   20  C   UNL     1      39.397   7.322  -9.057  1.00  0.00    -0.005 C 
HETATM   21  C   UNL     1      39.703   8.719  -8.526  1.00  0.00     0.005 C 
ENDBRANCH  19  20
ENDBRANCH  18  19
ENDBRANCH  17  18
ENDBRANCH  16  17
ENDBRANCH  15  16
ENDBRANCH  14  15
ENDBRANCH  13  14
ENDBRANCH  11  12
ENDBRANCH  10  11
ENDBRANCH   9  10
ENDBRANCH   8   9
ENDBRANCH   7   8
ENDBRANCH   6   7
ENDBRANCH   5   6
ENDBRANCH   3   5
ENDBRANCH   1   3
TORSDOF 16
ENDMDL
