MODEL 1
REMARK VINA RESULT:      -5.2      0.000      0.000
REMARK  15 active torsions:
REMARK  status: ('A' for Active; 'I' for Inactive)
REMARK    1  A    between atoms: O_1  and  C_23 
REMARK    2  A    between atoms: C_3  and  C_7 
REMARK    3  A    between atoms: C_3  and  C_8 
REMARK    4  A    between atoms: C_4  and  C_10 
REMARK    5  A    between atoms: C_4  and  C_11 
REMARK    6  A    between atoms: C_5  and  C_12 
REMARK    7  A    between atoms: C_5  and  C_13 
REMARK    8  A    between atoms: C_6  and  C_15 
REMARK    9  A    between atoms: C_6  and  C_16 
REMARK   10  A    between atoms: C_7  and  C_23 
REMARK   11  A    between atoms: C_9  and  C_17 
REMARK   12  A    between atoms: C_9  and  C_18 
REMARK   13  A    between atoms: C_14  and  C_19 
REMARK   14  A    between atoms: C_14  and  C_20 
REMARK   15  A    between atoms: C_21  and  C_22 
ROOT
HETATM    1  O   UNL     1      32.454 -20.498 -14.689  1.00  0.00    -0.776 OA
HETATM    2  H   UNL     1      33.096 -21.192 -14.894  1.00  0.00     0.167 HD
ENDROOT
BRANCH   1   3
HETATM    3  C   UNL     1      31.143 -20.645 -14.979  1.00  0.00     0.139 C 
HETATM    4  O   UNL     1      30.798 -20.971 -16.106  1.00  0.00    -0.650 OA
BRANCH   3   5
HETATM    5  C   UNL     1      30.112 -20.409 -13.912  1.00  0.00     0.113 C 
BRANCH   5   6
HETATM    6  C   UNL     1      30.778 -20.099 -12.567  1.00  0.00     0.037 C 
BRANCH   6   7
HETATM    7  C   UNL     1      30.381 -18.726 -12.079  1.00  0.00    -0.030 C 
HETATM    8  C   UNL     1      30.502 -18.244 -10.824  1.00  0.00    -0.027 C 
BRANCH   8   9
HETATM    9  C   UNL     1      31.061 -18.958  -9.612  1.00  0.00     0.053 C 
BRANCH   9  10
HETATM   10  C   UNL     1      30.156 -18.779  -8.420  1.00  0.00    -0.027 C 
HETATM   11  C   UNL     1      30.132 -17.709  -7.605  1.00  0.00    -0.027 C 
BRANCH  11  12
HETATM   12  C   UNL     1      30.967 -16.466  -7.769  1.00  0.00     0.053 C 
BRANCH  12  13
HETATM   13  C   UNL     1      30.153 -15.229  -7.480  1.00  0.00    -0.027 C 
HETATM   14  C   UNL     1      29.273 -14.635  -8.308  1.00  0.00    -0.027 C 
BRANCH  14  15
HETATM   15  C   UNL     1      28.957 -15.058  -9.717  1.00  0.00     0.053 C 
BRANCH  15  16
HETATM   16  C   UNL     1      27.945 -14.092 -10.293  1.00  0.00    -0.027 C 
HETATM   17  C   UNL     1      27.788 -13.727 -11.581  1.00  0.00    -0.027 C 
BRANCH  17  18
HETATM   18  C   UNL     1      28.579 -14.212 -12.767  1.00  0.00     0.053 C 
BRANCH  18  19
HETATM   19  C   UNL     1      28.881 -13.071 -13.710  1.00  0.00    -0.027 C 
HETATM   20  C   UNL     1      30.093 -12.613 -14.084  1.00  0.00    -0.027 C 
BRANCH  20  21
HETATM   21  C   UNL     1      31.438 -13.172 -13.688  1.00  0.00     0.053 C 
BRANCH  21  22
HETATM   22  C   UNL     1      32.299 -12.103 -13.055  1.00  0.00    -0.027 C 
HETATM   23  C   UNL     1      32.371 -11.783 -11.748  1.00  0.00    -0.031 C 
BRANCH  23  24
HETATM   24  C   UNL     1      31.587 -12.412 -10.626  1.00  0.00     0.022 C 
HETATM   25  C   UNL     1      30.441 -11.530 -10.149  1.00  0.00     0.009 C 
ENDBRANCH  23  24
ENDBRANCH  21  22
ENDBRANCH  20  21
ENDBRANCH  18  19
ENDBRANCH  17  18
ENDBRANCH  15  16
ENDBRANCH  14  15
ENDBRANCH  12  13
ENDBRANCH  11  12
ENDBRANCH   9  10
ENDBRANCH   8   9
ENDBRANCH   6   7
ENDBRANCH   5   6
ENDBRANCH   3   5
ENDBRANCH   1   3
TORSDOF 15
ENDMDL
MODEL 2
REMARK VINA RESULT:      -5.2     25.277     27.520
REMARK  15 active torsions:
REMARK  status: ('A' for Active; 'I' for Inactive)
REMARK    1  A    between atoms: O_1  and  C_23 
REMARK    2  A    between atoms: C_3  and  C_7 
REMARK    3  A    between atoms: C_3  and  C_8 
REMARK    4  A    between atoms: C_4  and  C_10 
REMARK    5  A    between atoms: C_4  and  C_11 
REMARK    6  A    between atoms: C_5  and  C_12 
REMARK    7  A    between atoms: C_5  and  C_13 
REMARK    8  A    between atoms: C_6  and  C_15 
REMARK    9  A    between atoms: C_6  and  C_16 
REMARK   10  A    between atoms: C_7  and  C_23 
REMARK   11  A    between atoms: C_9  and  C_17 
REMARK   12  A    between atoms: C_9  and  C_18 
REMARK   13  A    between atoms: C_14  and  C_19 
REMARK   14  A    between atoms: C_14  and  C_20 
REMARK   15  A    between atoms: C_21  and  C_22 
ROOT
HETATM    1  O   UNL     1      41.743  10.481 -14.195  1.00  0.00    -0.776 OA
HETATM    2  H   UNL     1      42.177  11.206 -14.666  1.00  0.00     0.167 HD
ENDROOT
BRANCH   1   3
HETATM    3  C   UNL     1      40.993   9.567 -14.848  1.00  0.00     0.139 C 
HETATM    4  O   UNL     1      40.533   9.827 -15.950  1.00  0.00    -0.650 OA
BRANCH   3   5
HETATM    5  C   UNL     1      40.730   8.230 -14.216  1.00  0.00     0.113 C 
BRANCH   5   6
HETATM    6  C   UNL     1      39.225   7.945 -14.145  1.00  0.00     0.037 C 
BRANCH   6   7
HETATM    7  C   UNL     1      38.590   8.718 -13.014  1.00  0.00    -0.030 C 
HETATM    8  C   UNL     1      38.484   8.331 -11.725  1.00  0.00    -0.027 C 
BRANCH   8   9
HETATM    9  C   UNL     1      38.973   7.038 -11.108  1.00  0.00     0.053 C 
BRANCH   9  10
HETATM   10  C   UNL     1      38.971   7.127  -9.602  1.00  0.00    -0.027 C 
HETATM   11  C   UNL     1      39.940   7.673  -8.846  1.00  0.00    -0.027 C 
BRANCH  11  12
HETATM   12  C   UNL     1      41.181   8.348  -9.370  1.00  0.00     0.053 C 
BRANCH  12  13
HETATM   13  C   UNL     1      41.538   9.547  -8.527  1.00  0.00    -0.027 C 
HETATM   14  C   UNL     1      40.793  10.654  -8.350  1.00  0.00    -0.027 C 
BRANCH  14  15
HETATM   15  C   UNL     1      39.466  10.944  -9.001  1.00  0.00     0.053 C 
BRANCH  15  16
HETATM   16  C   UNL     1      38.535  11.522  -7.958  1.00  0.00    -0.027 C 
HETATM   17  C   UNL     1      37.701  10.858  -7.133  1.00  0.00    -0.027 C 
BRANCH  17  18
HETATM   18  C   UNL     1      37.510   9.367  -7.039  1.00  0.00     0.053 C 
BRANCH  18  19
HETATM   19  C   UNL     1      37.462   8.925  -5.595  1.00  0.00    -0.027 C 
HETATM   20  C   UNL     1      38.426   8.288  -4.899  1.00  0.00    -0.027 C 
BRANCH  20  21
HETATM   21  C   UNL     1      39.804   7.914  -5.387  1.00  0.00     0.053 C 
BRANCH  21  22
HETATM   22  C   UNL     1      40.847   8.219  -4.337  1.00  0.00    -0.027 C 
HETATM   23  C   UNL     1      41.474   9.392  -4.127  1.00  0.00    -0.031 C 
BRANCH  23  24
HETATM   24  C   UNL     1      41.285  10.664  -4.913  1.00  0.00     0.022 C 
HETATM   25  C   UNL     1      40.156  11.526  -4.365  1.00  0.00     0.009 C 
ENDBRANCH  23  24
ENDBRANCH  21  22
ENDBRANCH  20  21
ENDBRANCH  18  19
ENDBRANCH  17  18
ENDBRANCH  15  16
ENDBRANCH  14  15
ENDBRANCH  12  13
ENDBRANCH  11  12
ENDBRANCH   9  10
ENDBRANCH   8   9
ENDBRANCH   6   7
ENDBRANCH   5   6
ENDBRANCH   3   5
ENDBRANCH   1   3
TORSDOF 15
ENDMDL
MODEL 3
REMARK VINA RESULT:      -5.2      3.292      5.624
REMARK  15 active torsions:
REMARK  status: ('A' for Active; 'I' for Inactive)
REMARK    1  A    between atoms: O_1  and  C_23 
REMARK    2  A    between atoms: C_3  and  C_7 
REMARK    3  A    between atoms: C_3  and  C_8 
REMARK    4  A    between atoms: C_4  and  C_10 
REMARK    5  A    between atoms: C_4  and  C_11 
REMARK    6  A    between atoms: C_5  and  C_12 
REMARK    7  A    between atoms: C_5  and  C_13 
REMARK    8  A    between atoms: C_6  and  C_15 
REMARK    9  A    between atoms: C_6  and  C_16 
REMARK   10  A    between atoms: C_7  and  C_23 
REMARK   11  A    between atoms: C_9  and  C_17 
REMARK   12  A    between atoms: C_9  and  C_18 
REMARK   13  A    between atoms: C_14  and  C_19 
REMARK   14  A    between atoms: C_14  and  C_20 
REMARK   15  A    between atoms: C_21  and  C_22 
ROOT
HETATM    1  O   UNL     1      31.819 -21.161 -10.061  1.00  0.00    -0.776 OA
HETATM    2  H   UNL     1      31.806 -22.127 -10.029  1.00  0.00     0.167 HD
ENDROOT
BRANCH   1   3
HETATM    3  C   UNL     1      30.717 -20.432  -9.783  1.00  0.00     0.139 C 
HETATM    4  O   UNL     1      29.971 -20.772  -8.876  1.00  0.00    -0.650 OA
BRANCH   3   5
HETATM    5  C   UNL     1      30.414 -19.201 -10.589  1.00  0.00     0.113 C 
BRANCH   5   6
HETATM    6  C   UNL     1      31.020 -17.955  -9.934  1.00  0.00     0.037 C 
BRANCH   6   7
HETATM    7  C   UNL     1      29.975 -17.206  -9.143  1.00  0.00    -0.030 C 
HETATM    8  C   UNL     1      29.951 -17.012  -7.807  1.00  0.00    -0.027 C 
BRANCH   8   9
HETATM    9  C   UNL     1      30.961 -17.496  -6.788  1.00  0.00     0.053 C 
BRANCH   9  10
HETATM   10  C   UNL     1      30.422 -18.671  -6.014  1.00  0.00    -0.027 C 
HETATM   11  C   UNL     1      30.033 -18.652  -4.726  1.00  0.00    -0.027 C 
BRANCH  11  12
HETATM   12  C   UNL     1      30.012 -17.435  -3.838  1.00  0.00     0.053 C 
BRANCH  12  13
HETATM   13  C   UNL     1      31.393 -17.126  -3.316  1.00  0.00    -0.027 C 
HETATM   14  C   UNL     1      32.090 -15.991  -3.510  1.00  0.00    -0.027 C 
BRANCH  14  15
HETATM   15  C   UNL     1      31.649 -14.810  -4.335  1.00  0.00     0.053 C 
BRANCH  15  16
HETATM   16  C   UNL     1      31.458 -13.625  -3.414  1.00  0.00    -0.027 C 
HETATM   17  C   UNL     1      31.133 -12.360  -3.748  1.00  0.00    -0.027 C 
BRANCH  17  18
HETATM   18  C   UNL     1      30.862 -11.826  -5.130  1.00  0.00     0.053 C 
BRANCH  18  19
HETATM   19  C   UNL     1      29.393 -11.518  -5.304  1.00  0.00    -0.027 C 
HETATM   20  C   UNL     1      28.467 -12.264  -5.941  1.00  0.00    -0.027 C 
BRANCH  20  21
HETATM   21  C   UNL     1      28.672 -13.612  -6.586  1.00  0.00     0.053 C 
BRANCH  21  22
HETATM   22  C   UNL     1      28.782 -13.481  -8.087  1.00  0.00    -0.027 C 
HETATM   23  C   UNL     1      29.909 -13.484  -8.825  1.00  0.00    -0.031 C 
BRANCH  23  24
HETATM   24  C   UNL     1      31.320 -13.602  -8.309  1.00  0.00     0.022 C 
HETATM   25  C   UNL     1      32.346 -13.693  -9.431  1.00  0.00     0.009 C 
ENDBRANCH  23  24
ENDBRANCH  21  22
ENDBRANCH  20  21
ENDBRANCH  18  19
ENDBRANCH  17  18
ENDBRANCH  15  16
ENDBRANCH  14  15
ENDBRANCH  12  13
ENDBRANCH  11  12
ENDBRANCH   9  10
ENDBRANCH   8   9
ENDBRANCH   6   7
ENDBRANCH   5   6
ENDBRANCH   3   5
ENDBRANCH   1   3
TORSDOF 15
ENDMDL
MODEL 4
REMARK VINA RESULT:      -5.1     25.404     27.542
REMARK  15 active torsions:
REMARK  status: ('A' for Active; 'I' for Inactive)
REMARK    1  A    between atoms: O_1  and  C_23 
REMARK    2  A    between atoms: C_3  and  C_7 
REMARK    3  A    between atoms: C_3  and  C_8 
REMARK    4  A    between atoms: C_4  and  C_10 
REMARK    5  A    between atoms: C_4  and  C_11 
REMARK    6  A    between atoms: C_5  and  C_12 
REMARK    7  A    between atoms: C_5  and  C_13 
REMARK    8  A    between atoms: C_6  and  C_15 
REMARK    9  A    between atoms: C_6  and  C_16 
REMARK   10  A    between atoms: C_7  and  C_23 
REMARK   11  A    between atoms: C_9  and  C_17 
REMARK   12  A    between atoms: C_9  and  C_18 
REMARK   13  A    between atoms: C_14  and  C_19 
REMARK   14  A    between atoms: C_14  and  C_20 
REMARK   15  A    between atoms: C_21  and  C_22 
ROOT
HETATM    1  O   UNL     1      43.346  11.748  -8.984  1.00  0.00    -0.776 OA
HETATM    2  H   UNL     1      43.978  11.320  -8.390  1.00  0.00     0.167 HD
ENDROOT
BRANCH   1   3
HETATM    3  C   UNL     1      42.267  11.089  -9.457  1.00  0.00     0.139 C 
HETATM    4  O   UNL     1      42.004  11.121 -10.651  1.00  0.00    -0.650 OA
BRANCH   3   5
HETATM    5  C   UNL     1      41.392  10.316  -8.512  1.00  0.00     0.113 C 
BRANCH   5   6
HETATM    6  C   UNL     1      41.187   8.879  -9.007  1.00  0.00     0.037 C 
BRANCH   6   7
HETATM    7  C   UNL     1      40.186   8.155  -8.140  1.00  0.00    -0.030 C 
HETATM    8  C   UNL     1      39.183   7.352  -8.555  1.00  0.00    -0.027 C 
BRANCH   8   9
HETATM    9  C   UNL     1      38.824   6.987  -9.979  1.00  0.00     0.053 C 
BRANCH   9  10
HETATM   10  C   UNL     1      38.012   8.082 -10.625  1.00  0.00    -0.027 C 
HETATM   11  C   UNL     1      38.360   8.774 -11.724  1.00  0.00    -0.027 C 
BRANCH  11  12
HETATM   12  C   UNL     1      39.601   8.541 -12.547  1.00  0.00     0.053 C 
BRANCH  12  13
HETATM   13  C   UNL     1      39.499   7.250 -13.320  1.00  0.00    -0.027 C 
HETATM   14  C   UNL     1      38.991   7.092 -14.557  1.00  0.00    -0.027 C 
BRANCH  14  15
HETATM   15  C   UNL     1      38.372   8.170 -15.405  1.00  0.00     0.053 C 
BRANCH  15  16
HETATM   16  C   UNL     1      39.481   8.969 -16.053  1.00  0.00    -0.027 C 
HETATM   17  C   UNL     1      40.059   8.762 -17.254  1.00  0.00    -0.027 C 
BRANCH  17  18
HETATM   18  C   UNL     1      39.719   7.687 -18.253  1.00  0.00     0.053 C 
BRANCH  18  19
HETATM   19  C   UNL     1      38.508   8.080 -19.067  1.00  0.00    -0.027 C 
HETATM   20  C   UNL     1      38.286   7.841 -20.376  1.00  0.00    -0.027 C 
BRANCH  20  21
HETATM   21  C   UNL     1      39.175   7.075 -21.325  1.00  0.00     0.053 C 
BRANCH  21  22
HETATM   22  C   UNL     1      40.079   8.013 -22.091  1.00  0.00    -0.027 C 
HETATM   23  C   UNL     1      39.750   8.778 -23.150  1.00  0.00    -0.031 C 
BRANCH  23  24
HETATM   24  C   UNL     1      38.402   8.853 -23.819  1.00  0.00     0.022 C 
HETATM   25  C   UNL     1      38.170   7.704 -24.792  1.00  0.00     0.009 C 
ENDBRANCH  23  24
ENDBRANCH  21  22
ENDBRANCH  20  21
ENDBRANCH  18  19
ENDBRANCH  17  18
ENDBRANCH  15  16
ENDBRANCH  14  15
ENDBRANCH  12  13
ENDBRANCH  11  12
ENDBRANCH   9  10
ENDBRANCH   8   9
ENDBRANCH   6   7
ENDBRANCH   5   6
ENDBRANCH   3   5
ENDBRANCH   1   3
TORSDOF 15
ENDMDL
MODEL 5
REMARK VINA RESULT:      -5.1     25.066     27.700
REMARK  15 active torsions:
REMARK  status: ('A' for Active; 'I' for Inactive)
REMARK    1  A    between atoms: O_1  and  C_23 
REMARK    2  A    between atoms: C_3  and  C_7 
REMARK    3  A    between atoms: C_3  and  C_8 
REMARK    4  A    between atoms: C_4  and  C_10 
REMARK    5  A    between atoms: C_4  and  C_11 
REMARK    6  A    between atoms: C_5  and  C_12 
REMARK    7  A    between atoms: C_5  and  C_13 
REMARK    8  A    between atoms: C_6  and  C_15 
REMARK    9  A    between atoms: C_6  and  C_16 
REMARK   10  A    between atoms: C_7  and  C_23 
REMARK   11  A    between atoms: C_9  and  C_17 
REMARK   12  A    between atoms: C_9  and  C_18 
REMARK   13  A    between atoms: C_14  and  C_19 
REMARK   14  A    between atoms: C_14  and  C_20 
REMARK   15  A    between atoms: C_21  and  C_22 
ROOT
HETATM    1  O   UNL     1      38.201   9.924 -15.216  1.00  0.00    -0.776 OA
HETATM    2  H   UNL     1      37.410  10.144 -14.706  1.00  0.00     0.167 HD
ENDROOT
BRANCH   1   3
HETATM    3  C   UNL     1      38.331   8.731 -15.835  1.00  0.00     0.139 C 
HETATM    4  O   UNL     1      38.139   8.642 -17.039  1.00  0.00    -0.650 OA
BRANCH   3   5
HETATM    5  C   UNL     1      38.715   7.516 -15.040  1.00  0.00     0.113 C 
BRANCH   5   6
HETATM    6  C   UNL     1      39.473   7.911 -13.768  1.00  0.00     0.037 C 
BRANCH   6   7
HETATM    7  C   UNL     1      40.927   8.181 -14.076  1.00  0.00    -0.030 C 
HETATM    8  C   UNL     1      41.577   9.358 -13.958  1.00  0.00    -0.027 C 
BRANCH   8   9
HETATM    9  C   UNL     1      41.009  10.682 -13.491  1.00  0.00     0.053 C 
BRANCH   9  10
HETATM   10  C   UNL     1      42.026  11.445 -12.680  1.00  0.00    -0.027 C 
HETATM   11  C   UNL     1      42.149  11.411 -11.341  1.00  0.00    -0.027 C 
BRANCH  11  12
HETATM   12  C   UNL     1      41.329  10.557 -10.410  1.00  0.00     0.053 C 
BRANCH  12  13
HETATM   13  C   UNL     1      41.970  10.480  -9.046  1.00  0.00    -0.027 C 
HETATM   14  C   UNL     1      41.347  10.229  -7.879  1.00  0.00    -0.027 C 
BRANCH  14  15
HETATM   15  C   UNL     1      39.868  10.020  -7.690  1.00  0.00     0.053 C 
BRANCH  15  16
HETATM   16  C   UNL     1      39.637   8.594  -7.243  1.00  0.00    -0.027 C 
HETATM   17  C   UNL     1      39.622   7.479  -8.001  1.00  0.00    -0.027 C 
BRANCH  17  18
HETATM   18  C   UNL     1      39.853   7.387  -9.486  1.00  0.00     0.053 C 
BRANCH  18  19
HETATM   19  C   UNL     1      38.556   7.116 -10.212  1.00  0.00    -0.027 C 
HETATM   20  C   UNL     1      37.581   7.999 -10.508  1.00  0.00    -0.027 C 
BRANCH  20  21
HETATM   21  C   UNL     1      37.581   9.482 -10.230  1.00  0.00     0.053 C 
BRANCH  21  22
HETATM   22  C   UNL     1      37.766  10.268 -11.507  1.00  0.00    -0.027 C 
HETATM   23  C   UNL     1      37.992  11.591 -11.624  1.00  0.00    -0.031 C 
BRANCH  23  24
HETATM   24  C   UNL     1      38.093  12.587 -10.498  1.00  0.00     0.022 C 
HETATM   25  C   UNL     1      39.259  13.551 -10.674  1.00  0.00     0.009 C 
ENDBRANCH  23  24
ENDBRANCH  21  22
ENDBRANCH  20  21
ENDBRANCH  18  19
ENDBRANCH  17  18
ENDBRANCH  15  16
ENDBRANCH  14  15
ENDBRANCH  12  13
ENDBRANCH  11  12
ENDBRANCH   9  10
ENDBRANCH   8   9
ENDBRANCH   6   7
ENDBRANCH   5   6
ENDBRANCH   3   5
ENDBRANCH   1   3
TORSDOF 15
ENDMDL
MODEL 6
REMARK VINA RESULT:      -5.1      3.178      6.552
REMARK  15 active torsions:
REMARK  status: ('A' for Active; 'I' for Inactive)
REMARK    1  A    between atoms: O_1  and  C_23 
REMARK    2  A    between atoms: C_3  and  C_7 
REMARK    3  A    between atoms: C_3  and  C_8 
REMARK    4  A    between atoms: C_4  and  C_10 
REMARK    5  A    between atoms: C_4  and  C_11 
REMARK    6  A    between atoms: C_5  and  C_12 
REMARK    7  A    between atoms: C_5  and  C_13 
REMARK    8  A    between atoms: C_6  and  C_15 
REMARK    9  A    between atoms: C_6  and  C_16 
REMARK   10  A    between atoms: C_7  and  C_23 
REMARK   11  A    between atoms: C_9  and  C_17 
REMARK   12  A    between atoms: C_9  and  C_18 
REMARK   13  A    between atoms: C_14  and  C_19 
REMARK   14  A    between atoms: C_14  and  C_20 
REMARK   15  A    between atoms: C_21  and  C_22 
ROOT
HETATM    1  O   UNL     1      31.325 -20.175 -11.984  1.00  0.00    -0.776 OA
HETATM    2  H   UNL     1      32.196 -20.556 -11.806  1.00  0.00     0.167 HD
ENDROOT
BRANCH   1   3
HETATM    3  C   UNL     1      30.806 -20.157 -13.231  1.00  0.00     0.139 C 
HETATM    4  O   UNL     1      29.824 -20.835 -13.496  1.00  0.00    -0.650 OA
BRANCH   3   5
HETATM    5  C   UNL     1      31.437 -19.297 -14.288  1.00  0.00     0.113 C 
BRANCH   5   6
HETATM    6  C   UNL     1      30.537 -19.202 -15.525  1.00  0.00     0.037 C 
BRANCH   6   7
HETATM    7  C   UNL     1      30.963 -20.204 -16.572  1.00  0.00    -0.030 C 
HETATM    8  C   UNL     1      30.676 -20.173 -17.890  1.00  0.00    -0.027 C 
BRANCH   8   9
HETATM    9  C   UNL     1      29.863 -19.133 -18.632  1.00  0.00     0.053 C 
BRANCH   9  10
HETATM   10  C   UNL     1      30.760 -18.220 -19.429  1.00  0.00    -0.027 C 
HETATM   11  C   UNL     1      31.074 -16.952 -19.109  1.00  0.00    -0.027 C 
BRANCH  11  12
HETATM   12  C   UNL     1      30.632 -16.230 -17.862  1.00  0.00     0.053 C 
BRANCH  12  13
HETATM   13  C   UNL     1      31.769 -16.108 -16.879  1.00  0.00    -0.027 C 
HETATM   14  C   UNL     1      32.214 -14.976 -16.302  1.00  0.00    -0.027 C 
BRANCH  14  15
HETATM   15  C   UNL     1      31.694 -13.586 -16.559  1.00  0.00     0.053 C 
BRANCH  15  16
HETATM   16  C   UNL     1      32.588 -12.599 -15.842  1.00  0.00    -0.027 C 
HETATM   17  C   UNL     1      32.425 -12.075 -14.610  1.00  0.00    -0.027 C 
BRANCH  17  18
HETATM   18  C   UNL     1      31.312 -12.367 -13.638  1.00  0.00     0.053 C 
BRANCH  18  19
HETATM   19  C   UNL     1      31.558 -13.676 -12.924  1.00  0.00    -0.027 C 
HETATM   20  C   UNL     1      30.658 -14.642 -12.648  1.00  0.00    -0.027 C 
BRANCH  20  21
HETATM   21  C   UNL     1      29.201 -14.667 -13.039  1.00  0.00     0.053 C 
BRANCH  21  22
HETATM   22  C   UNL     1      29.025 -15.252 -14.421  1.00  0.00    -0.027 C 
HETATM   23  C   UNL     1      28.329 -14.725 -15.447  1.00  0.00    -0.031 C 
BRANCH  23  24
HETATM   24  C   UNL     1      27.552 -13.434 -15.434  1.00  0.00     0.022 C 
HETATM   25  C   UNL     1      28.420 -12.228 -15.769  1.00  0.00     0.009 C 
ENDBRANCH  23  24
ENDBRANCH  21  22
ENDBRANCH  20  21
ENDBRANCH  18  19
ENDBRANCH  17  18
ENDBRANCH  15  16
ENDBRANCH  14  15
ENDBRANCH  12  13
ENDBRANCH  11  12
ENDBRANCH   9  10
ENDBRANCH   8   9
ENDBRANCH   6   7
ENDBRANCH   5   6
ENDBRANCH   3   5
ENDBRANCH   1   3
TORSDOF 15
ENDMDL
MODEL 7
REMARK VINA RESULT:      -5.1     25.820     27.906
REMARK  15 active torsions:
REMARK  status: ('A' for Active; 'I' for Inactive)
REMARK    1  A    between atoms: O_1  and  C_23 
REMARK    2  A    between atoms: C_3  and  C_7 
REMARK    3  A    between atoms: C_3  and  C_8 
REMARK    4  A    between atoms: C_4  and  C_10 
REMARK    5  A    between atoms: C_4  and  C_11 
REMARK    6  A    between atoms: C_5  and  C_12 
REMARK    7  A    between atoms: C_5  and  C_13 
REMARK    8  A    between atoms: C_6  and  C_15 
REMARK    9  A    between atoms: C_6  and  C_16 
REMARK   10  A    between atoms: C_7  and  C_23 
REMARK   11  A    between atoms: C_9  and  C_17 
REMARK   12  A    between atoms: C_9  and  C_18 
REMARK   13  A    between atoms: C_14  and  C_19 
REMARK   14  A    between atoms: C_14  and  C_20 
REMARK   15  A    between atoms: C_21  and  C_22 
ROOT
HETATM    1  O   UNL     1      42.303  11.452 -11.833  1.00  0.00    -0.776 OA
HETATM    2  H   UNL     1      42.478  10.630 -11.355  1.00  0.00     0.167 HD
ENDROOT
BRANCH   1   3
HETATM    3  C   UNL     1      42.187  11.474 -13.178  1.00  0.00     0.139 C 
HETATM    4  O   UNL     1      42.124  12.541 -13.771  1.00  0.00    -0.650 OA
BRANCH   3   5
HETATM    5  C   UNL     1      42.141  10.182 -13.944  1.00  0.00     0.113 C 
BRANCH   5   6
HETATM    6  C   UNL     1      40.978   9.304 -13.466  1.00  0.00     0.037 C 
BRANCH   6   7
HETATM    7  C   UNL     1      40.821   8.097 -14.359  1.00  0.00    -0.030 C 
HETATM    8  C   UNL     1      39.665   7.507 -14.731  1.00  0.00    -0.027 C 
BRANCH   8   9
HETATM    9  C   UNL     1      38.259   7.910 -14.345  1.00  0.00     0.053 C 
BRANCH   9  10
HETATM   10  C   UNL     1      37.510   8.453 -15.536  1.00  0.00    -0.027 C 
HETATM   11  C   UNL     1      37.322   9.755 -15.818  1.00  0.00    -0.027 C 
BRANCH  11  12
HETATM   12  C   UNL     1      37.875  10.910 -15.025  1.00  0.00     0.053 C 
BRANCH  12  13
HETATM   13  C   UNL     1      36.823  11.490 -14.113  1.00  0.00    -0.027 C 
HETATM   14  C   UNL     1      36.778  11.387 -12.772  1.00  0.00    -0.027 C 
BRANCH  14  15
HETATM   15  C   UNL     1      37.747  10.624 -11.908  1.00  0.00     0.053 C 
BRANCH  15  16
HETATM   16  C   UNL     1      36.968   9.640 -11.064  1.00  0.00    -0.027 C 
HETATM   17  C   UNL     1      37.358   8.420 -10.643  1.00  0.00    -0.027 C 
BRANCH  17  18
HETATM   18  C   UNL     1      38.682   7.749 -10.898  1.00  0.00     0.053 C 
BRANCH  18  19
HETATM   19  C   UNL     1      39.285   7.249  -9.606  1.00  0.00    -0.027 C 
HETATM   20  C   UNL     1      40.376   7.724  -8.971  1.00  0.00    -0.027 C 
BRANCH  20  21
HETATM   21  C   UNL     1      41.221   8.906  -9.376  1.00  0.00     0.053 C 
BRANCH  21  22
HETATM   22  C   UNL     1      41.384   9.871  -8.224  1.00  0.00    -0.027 C 
HETATM   23  C   UNL     1      40.496  10.792  -7.801  1.00  0.00    -0.031 C 
BRANCH  23  24
HETATM   24  C   UNL     1      39.144  11.077  -8.401  1.00  0.00     0.022 C 
HETATM   25  C   UNL     1      38.009  10.441  -7.609  1.00  0.00     0.009 C 
ENDBRANCH  23  24
ENDBRANCH  21  22
ENDBRANCH  20  21
ENDBRANCH  18  19
ENDBRANCH  17  18
ENDBRANCH  15  16
ENDBRANCH  14  15
ENDBRANCH  12  13
ENDBRANCH  11  12
ENDBRANCH   9  10
ENDBRANCH   8   9
ENDBRANCH   6   7
ENDBRANCH   5   6
ENDBRANCH   3   5
ENDBRANCH   1   3
TORSDOF 15
ENDMDL
MODEL 8
REMARK VINA RESULT:      -5.1      3.400      6.154
REMARK  15 active torsions:
REMARK  status: ('A' for Active; 'I' for Inactive)
REMARK    1  A    between atoms: O_1  and  C_23 
REMARK    2  A    between atoms: C_3  and  C_7 
REMARK    3  A    between atoms: C_3  and  C_8 
REMARK    4  A    between atoms: C_4  and  C_10 
REMARK    5  A    between atoms: C_4  and  C_11 
REMARK    6  A    between atoms: C_5  and  C_12 
REMARK    7  A    between atoms: C_5  and  C_13 
REMARK    8  A    between atoms: C_6  and  C_15 
REMARK    9  A    between atoms: C_6  and  C_16 
REMARK   10  A    between atoms: C_7  and  C_23 
REMARK   11  A    between atoms: C_9  and  C_17 
REMARK   12  A    between atoms: C_9  and  C_18 
REMARK   13  A    between atoms: C_14  and  C_19 
REMARK   14  A    between atoms: C_14  and  C_20 
REMARK   15  A    between atoms: C_21  and  C_22 
ROOT
HETATM    1  O   UNL     1      31.116 -19.096 -11.663  1.00  0.00    -0.776 OA
HETATM    2  H   UNL     1      32.005 -19.141 -11.284  1.00  0.00     0.167 HD
ENDROOT
BRANCH   1   3
HETATM    3  C   UNL     1      30.845 -19.604 -12.884  1.00  0.00     0.139 C 
HETATM    4  O   UNL     1      30.203 -20.640 -12.988  1.00  0.00    -0.650 OA
BRANCH   3   5
HETATM    5  C   UNL     1      31.332 -18.892 -14.114  1.00  0.00     0.113 C 
BRANCH   5   6
HETATM    6  C   UNL     1      30.375 -19.115 -15.291  1.00  0.00     0.037 C 
BRANCH   6   7
HETATM    7  C   UNL     1      30.918 -20.169 -16.226  1.00  0.00    -0.030 C 
HETATM    8  C   UNL     1      30.763 -20.223 -17.566  1.00  0.00    -0.027 C 
BRANCH   8   9
HETATM    9  C   UNL     1      30.014 -19.247 -18.447  1.00  0.00     0.053 C 
BRANCH   9  10
HETATM   10  C   UNL     1      30.956 -18.543 -19.391  1.00  0.00    -0.027 C 
HETATM   11  C   UNL     1      31.578 -17.374 -19.153  1.00  0.00    -0.027 C 
BRANCH  11  12
HETATM   12  C   UNL     1      31.491 -16.582 -17.875  1.00  0.00     0.053 C 
BRANCH  12  13
HETATM   13  C   UNL     1      30.839 -15.242 -18.115  1.00  0.00    -0.027 C 
HETATM   14  C   UNL     1      29.861 -14.682 -17.379  1.00  0.00    -0.027 C 
BRANCH  14  15
HETATM   15  C   UNL     1      29.180 -15.303 -16.189  1.00  0.00     0.053 C 
BRANCH  15  16
HETATM   16  C   UNL     1      27.963 -14.473 -15.844  1.00  0.00    -0.027 C 
HETATM   17  C   UNL     1      27.893 -13.406 -15.023  1.00  0.00    -0.027 C 
BRANCH  17  18
HETATM   18  C   UNL     1      29.025 -12.769 -14.261  1.00  0.00     0.053 C 
BRANCH  18  19
HETATM   19  C   UNL     1      29.749 -11.763 -15.124  1.00  0.00    -0.027 C 
HETATM   20  C   UNL     1      31.074 -11.509 -15.153  1.00  0.00    -0.027 C 
BRANCH  20  21
HETATM   21  C   UNL     1      32.152 -12.210 -14.366  1.00  0.00     0.053 C 
BRANCH  21  22
HETATM   22  C   UNL     1      32.658 -13.424 -15.110  1.00  0.00    -0.027 C 
HETATM   23  C   UNL     1      32.476 -14.718 -14.779  1.00  0.00    -0.031 C 
BRANCH  23  24
HETATM   24  C   UNL     1      31.737 -15.240 -13.575  1.00  0.00     0.022 C 
HETATM   25  C   UNL     1      32.642 -15.400 -12.360  1.00  0.00     0.009 C 
ENDBRANCH  23  24
ENDBRANCH  21  22
ENDBRANCH  20  21
ENDBRANCH  18  19
ENDBRANCH  17  18
ENDBRANCH  15  16
ENDBRANCH  14  15
ENDBRANCH  12  13
ENDBRANCH  11  12
ENDBRANCH   9  10
ENDBRANCH   8   9
ENDBRANCH   6   7
ENDBRANCH   5   6
ENDBRANCH   3   5
ENDBRANCH   1   3
TORSDOF 15
ENDMDL
MODEL 9
REMARK VINA RESULT:      -5.0      2.906      5.205
REMARK  15 active torsions:
REMARK  status: ('A' for Active; 'I' for Inactive)
REMARK    1  A    between atoms: O_1  and  C_23 
REMARK    2  A    between atoms: C_3  and  C_7 
REMARK    3  A    between atoms: C_3  and  C_8 
REMARK    4  A    between atoms: C_4  and  C_10 
REMARK    5  A    between atoms: C_4  and  C_11 
REMARK    6  A    between atoms: C_5  and  C_12 
REMARK    7  A    between atoms: C_5  and  C_13 
REMARK    8  A    between atoms: C_6  and  C_15 
REMARK    9  A    between atoms: C_6  and  C_16 
REMARK   10  A    between atoms: C_7  and  C_23 
REMARK   11  A    between atoms: C_9  and  C_17 
REMARK   12  A    between atoms: C_9  and  C_18 
REMARK   13  A    between atoms: C_14  and  C_19 
REMARK   14  A    between atoms: C_14  and  C_20 
REMARK   15  A    between atoms: C_21  and  C_22 
ROOT
HETATM    1  O   UNL     1      29.873 -21.104 -13.930  1.00  0.00    -0.776 OA
HETATM    2  H   UNL     1      30.269 -21.433 -13.111  1.00  0.00     0.167 HD
ENDROOT
BRANCH   1   3
HETATM    3  C   UNL     1      30.591 -20.388 -14.822  1.00  0.00     0.139 C 
HETATM    4  O   UNL     1      31.534 -20.904 -15.405  1.00  0.00    -0.650 OA
BRANCH   3   5
HETATM    5  C   UNL     1      30.225 -18.957 -15.095  1.00  0.00     0.113 C 
BRANCH   5   6
HETATM    6  C   UNL     1      30.761 -18.034 -13.994  1.00  0.00     0.037 C 
BRANCH   6   7
HETATM    7  C   UNL     1      31.374 -16.791 -14.593  1.00  0.00    -0.030 C 
HETATM    8  C   UNL     1      30.719 -15.751 -15.151  1.00  0.00    -0.027 C 
BRANCH   8   9
HETATM    9  C   UNL     1      29.223 -15.582 -15.311  1.00  0.00     0.053 C 
BRANCH   9  10
HETATM   10  C   UNL     1      28.903 -14.752 -16.528  1.00  0.00    -0.027 C 
HETATM   11  C   UNL     1      28.385 -13.511 -16.518  1.00  0.00    -0.027 C 
BRANCH  11  12
HETATM   12  C   UNL     1      28.084 -12.699 -15.286  1.00  0.00     0.053 C 
BRANCH  12  13
HETATM   13  C   UNL     1      29.334 -12.044 -14.753  1.00  0.00    -0.027 C 
HETATM   14  C   UNL     1      29.852 -12.187 -13.519  1.00  0.00    -0.027 C 
BRANCH  14  15
HETATM   15  C   UNL     1      29.259 -12.996 -12.396  1.00  0.00     0.053 C 
BRANCH  15  16
HETATM   16  C   UNL     1      28.961 -12.068 -11.239  1.00  0.00    -0.027 C 
HETATM   17  C   UNL     1      29.793 -11.684 -10.250  1.00  0.00    -0.027 C 
BRANCH  17  18
HETATM   18  C   UNL     1      31.235 -12.078 -10.070  1.00  0.00     0.053 C 
BRANCH  18  19
HETATM   19  C   UNL     1      32.142 -10.886 -10.271  1.00  0.00    -0.027 C 
HETATM   20  C   UNL     1      33.055 -10.704 -11.247  1.00  0.00    -0.027 C 
BRANCH  20  21
HETATM   21  C   UNL     1      33.345 -11.627 -12.405  1.00  0.00     0.053 C 
BRANCH  21  22
HETATM   22  C   UNL     1      34.324 -10.993 -13.366  1.00  0.00    -0.027 C 
HETATM   23  C   UNL     1      34.072 -10.554 -14.614  1.00  0.00    -0.031 C 
BRANCH  23  24
HETATM   24  C   UNL     1      32.752 -10.617 -15.338  1.00  0.00     0.022 C 
HETATM   25  C   UNL     1      32.620 -11.866 -16.201  1.00  0.00     0.009 C 
ENDBRANCH  23  24
ENDBRANCH  21  22
ENDBRANCH  20  21
ENDBRANCH  18  19
ENDBRANCH  17  18
ENDBRANCH  15  16
ENDBRANCH  14  15
ENDBRANCH  12  13
ENDBRANCH  11  12
ENDBRANCH   9  10
ENDBRANCH   8   9
ENDBRANCH   6   7
ENDBRANCH   5   6
ENDBRANCH   3   5
ENDBRANCH   1   3
TORSDOF 15
ENDMDL
MODEL 10
REMARK VINA RESULT:      -5.0      3.425      6.704
REMARK  15 active torsions:
REMARK  status: ('A' for Active; 'I' for Inactive)
REMARK    1  A    between atoms: O_1  and  C_23 
REMARK    2  A    between atoms: C_3  and  C_7 
REMARK    3  A    between atoms: C_3  and  C_8 
REMARK    4  A    between atoms: C_4  and  C_10 
REMARK    5  A    between atoms: C_4  and  C_11 
REMARK    6  A    between atoms: C_5  and  C_12 
REMARK    7  A    between atoms: C_5  and  C_13 
REMARK    8  A    between atoms: C_6  and  C_15 
REMARK    9  A    between atoms: C_6  and  C_16 
REMARK   10  A    between atoms: C_7  and  C_23 
REMARK   11  A    between atoms: C_9  and  C_17 
REMARK   12  A    between atoms: C_9  and  C_18 
REMARK   13  A    between atoms: C_14  and  C_19 
REMARK   14  A    between atoms: C_14  and  C_20 
REMARK   15  A    between atoms: C_21  and  C_22 
ROOT
HETATM    1  O   UNL     1      31.909 -21.075 -14.745  1.00  0.00    -0.776 OA
HETATM    2  H   UNL     1      32.829 -21.154 -15.035  1.00  0.00     0.167 HD
ENDROOT
BRANCH   1   3
HETATM    3  C   UNL     1      30.988 -20.428 -15.491  1.00  0.00     0.139 C 
HETATM    4  O   UNL     1      30.773 -20.783 -16.641  1.00  0.00    -0.650 OA
BRANCH   3   5
HETATM    5  C   UNL     1      30.227 -19.275 -14.901  1.00  0.00     0.113 C 
BRANCH   5   6
HETATM    6  C   UNL     1      30.982 -17.958 -15.109  1.00  0.00     0.037 C 
BRANCH   6   7
HETATM    7  C   UNL     1      30.570 -17.307 -16.408  1.00  0.00    -0.030 C 
HETATM    8  C   UNL     1      31.105 -16.202 -16.969  1.00  0.00    -0.027 C 
BRANCH   8   9
HETATM    9  C   UNL     1      32.239 -15.354 -16.433  1.00  0.00     0.053 C 
BRANCH   9  10
HETATM   10  C   UNL     1      33.213 -15.007 -17.530  1.00  0.00    -0.027 C 
HETATM   11  C   UNL     1      33.182 -13.895 -18.286  1.00  0.00    -0.027 C 
BRANCH  11  12
HETATM   12  C   UNL     1      32.199 -12.764 -18.136  1.00  0.00     0.053 C 
BRANCH  12  13
HETATM   13  C   UNL     1      32.915 -11.450 -17.947  1.00  0.00    -0.027 C 
HETATM   14  C   UNL     1      33.448 -10.983 -16.802  1.00  0.00    -0.027 C 
BRANCH  14  15
HETATM   15  C   UNL     1      33.395 -11.661 -15.458  1.00  0.00     0.053 C 
BRANCH  15  16
HETATM   16  C   UNL     1      32.057 -11.357 -14.820  1.00  0.00    -0.027 C 
HETATM   17  C   UNL     1      31.298 -12.172 -14.059  1.00  0.00    -0.027 C 
BRANCH  17  18
HETATM   18  C   UNL     1      31.615 -13.584 -13.645  1.00  0.00     0.053 C 
BRANCH  18  19
HETATM   19  C   UNL     1      30.581 -14.098 -12.669  1.00  0.00    -0.027 C 
HETATM   20  C   UNL     1      29.360 -14.595 -12.953  1.00  0.00    -0.027 C 
BRANCH  20  21
HETATM   21  C   UNL     1      28.759 -14.807 -14.321  1.00  0.00     0.053 C 
BRANCH  21  22
HETATM   22  C   UNL     1      27.817 -13.680 -14.674  1.00  0.00    -0.027 C 
HETATM   23  C   UNL     1      27.901 -12.848 -15.731  1.00  0.00    -0.031 C 
BRANCH  23  24
HETATM   24  C   UNL     1      28.973 -12.847 -16.789  1.00  0.00     0.022 C 
HETATM   25  C   UNL     1      28.576 -13.650 -18.021  1.00  0.00     0.009 C 
ENDBRANCH  23  24
ENDBRANCH  21  22
ENDBRANCH  20  21
ENDBRANCH  18  19
ENDBRANCH  17  18
ENDBRANCH  15  16
ENDBRANCH  14  15
ENDBRANCH  12  13
ENDBRANCH  11  12
ENDBRANCH   9  10
ENDBRANCH   8   9
ENDBRANCH   6   7
ENDBRANCH   5   6
ENDBRANCH   3   5
ENDBRANCH   1   3
TORSDOF 15
ENDMDL
MODEL 11
REMARK VINA RESULT:      -5.0     25.876     27.571
REMARK  15 active torsions:
REMARK  status: ('A' for Active; 'I' for Inactive)
REMARK    1  A    between atoms: O_1  and  C_23 
REMARK    2  A    between atoms: C_3  and  C_7 
REMARK    3  A    between atoms: C_3  and  C_8 
REMARK    4  A    between atoms: C_4  and  C_10 
REMARK    5  A    between atoms: C_4  and  C_11 
REMARK    6  A    between atoms: C_5  and  C_12 
REMARK    7  A    between atoms: C_5  and  C_13 
REMARK    8  A    between atoms: C_6  and  C_15 
REMARK    9  A    between atoms: C_6  and  C_16 
REMARK   10  A    between atoms: C_7  and  C_23 
REMARK   11  A    between atoms: C_9  and  C_17 
REMARK   12  A    between atoms: C_9  and  C_18 
REMARK   13  A    between atoms: C_14  and  C_19 
REMARK   14  A    between atoms: C_14  and  C_20 
REMARK   15  A    between atoms: C_21  and  C_22 
ROOT
HETATM    1  O   UNL     1      43.010  12.278  -4.897  1.00  0.00    -0.776 OA
HETATM    2  H   UNL     1      43.704  11.611  -4.809  1.00  0.00     0.167 HD
ENDROOT
BRANCH   1   3
HETATM    3  C   UNL     1      41.705  11.957  -4.769  1.00  0.00     0.139 C 
HETATM    4  O   UNL     1      40.924  12.754  -4.269  1.00  0.00    -0.650 OA
BRANCH   3   5
HETATM    5  C   UNL     1      41.216  10.619  -5.245  1.00  0.00     0.113 C 
BRANCH   5   6
HETATM    6  C   UNL     1      41.670   9.501  -4.299  1.00  0.00     0.037 C 
BRANCH   6   7
HETATM    7  C   UNL     1      40.689   9.333  -3.164  1.00  0.00    -0.030 C 
HETATM    8  C   UNL     1      39.668   8.452  -3.097  1.00  0.00    -0.027 C 
BRANCH   8   9
HETATM    9  C   UNL     1      39.263   7.430  -4.137  1.00  0.00     0.053 C 
BRANCH   9  10
HETATM   10  C   UNL     1      38.261   8.013  -5.101  1.00  0.00    -0.027 C 
HETATM   11  C   UNL     1      38.331   7.947  -6.443  1.00  0.00    -0.027 C 
BRANCH  11  12
HETATM   12  C   UNL     1      39.396   7.226  -7.228  1.00  0.00     0.053 C 
BRANCH  12  13
HETATM   13  C   UNL     1      40.153   8.184  -8.114  1.00  0.00    -0.027 C 
HETATM   14  C   UNL     1      40.032   8.309  -9.449  1.00  0.00    -0.027 C 
BRANCH  14  15
HETATM   15  C   UNL     1      39.148   7.479 -10.341  1.00  0.00     0.053 C 
BRANCH  15  16
HETATM   16  C   UNL     1      38.379   8.408 -11.254  1.00  0.00    -0.027 C 
HETATM   17  C   UNL     1      38.565   8.615 -12.573  1.00  0.00    -0.027 C 
BRANCH  17  18
HETATM   18  C   UNL     1      39.582   7.950 -13.464  1.00  0.00     0.053 C 
BRANCH  18  19
HETATM   19  C   UNL     1      38.904   7.031 -14.453  1.00  0.00    -0.027 C 
HETATM   20  C   UNL     1      38.977   7.076 -15.799  1.00  0.00    -0.027 C 
BRANCH  20  21
HETATM   21  C   UNL     1      39.800   8.025 -16.634  1.00  0.00     0.053 C 
BRANCH  21  22
HETATM   22  C   UNL     1      38.930   8.764 -17.624  1.00  0.00    -0.027 C 
HETATM   23  C   UNL     1      38.531   8.336 -18.837  1.00  0.00    -0.031 C 
BRANCH  23  24
HETATM   24  C   UNL     1      38.885   7.023 -19.486  1.00  0.00     0.022 C 
HETATM   25  C   UNL     1      39.453   7.200 -20.889  1.00  0.00     0.009 C 
ENDBRANCH  23  24
ENDBRANCH  21  22
ENDBRANCH  20  21
ENDBRANCH  18  19
ENDBRANCH  17  18
ENDBRANCH  15  16
ENDBRANCH  14  15
ENDBRANCH  12  13
ENDBRANCH  11  12
ENDBRANCH   9  10
ENDBRANCH   8   9
ENDBRANCH   6   7
ENDBRANCH   5   6
ENDBRANCH   3   5
ENDBRANCH   1   3
TORSDOF 15
ENDMDL
MODEL 12
REMARK VINA RESULT:      -5.0     25.709     28.193
REMARK  15 active torsions:
REMARK  status: ('A' for Active; 'I' for Inactive)
REMARK    1  A    between atoms: O_1  and  C_23 
REMARK    2  A    between atoms: C_3  and  C_7 
REMARK    3  A    between atoms: C_3  and  C_8 
REMARK    4  A    between atoms: C_4  and  C_10 
REMARK    5  A    between atoms: C_4  and  C_11 
REMARK    6  A    between atoms: C_5  and  C_12 
REMARK    7  A    between atoms: C_5  and  C_13 
REMARK    8  A    between atoms: C_6  and  C_15 
REMARK    9  A    between atoms: C_6  and  C_16 
REMARK   10  A    between atoms: C_7  and  C_23 
REMARK   11  A    between atoms: C_9  and  C_17 
REMARK   12  A    between atoms: C_9  and  C_18 
REMARK   13  A    between atoms: C_14  and  C_19 
REMARK   14  A    between atoms: C_14  and  C_20 
REMARK   15  A    between atoms: C_21  and  C_22 
ROOT
HETATM    1  O   UNL     1      42.335  13.822  -6.190  1.00  0.00    -0.776 OA
HETATM    2  H   UNL     1      42.174  13.900  -5.239  1.00  0.00     0.167 HD
ENDROOT
BRANCH   1   3
HETATM    3  C   UNL     1      42.630  12.633  -6.759  1.00  0.00     0.139 C 
HETATM    4  O   UNL     1      42.671  11.620  -6.075  1.00  0.00    -0.650 OA
BRANCH   3   5
HETATM    5  C   UNL     1      42.904  12.560  -8.234  1.00  0.00     0.113 C 
BRANCH   5   6
HETATM    6  C   UNL     1      41.736  11.900  -8.975  1.00  0.00     0.037 C 
BRANCH   6   7
HETATM    7  C   UNL     1      42.080  10.478  -9.352  1.00  0.00    -0.030 C 
HETATM    8  C   UNL     1      41.585   9.350  -8.800  1.00  0.00    -0.027 C 
BRANCH   8   9
HETATM    9  C   UNL     1      40.574   9.238  -7.680  1.00  0.00     0.053 C 
BRANCH   9  10
HETATM   10  C   UNL     1      40.101   7.815  -7.523  1.00  0.00    -0.027 C 
HETATM   11  C   UNL     1      39.344   7.345  -6.515  1.00  0.00    -0.027 C 
BRANCH  11  12
HETATM   12  C   UNL     1      38.782   8.170  -5.387  1.00  0.00     0.053 C 
BRANCH  12  13
HETATM   13  C   UNL     1      37.326   8.487  -5.625  1.00  0.00    -0.027 C 
HETATM   14  C   UNL     1      36.836   9.522  -6.332  1.00  0.00    -0.027 C 
BRANCH  14  15
HETATM   15  C   UNL     1      37.644  10.609  -6.991  1.00  0.00     0.053 C 
BRANCH  15  16
HETATM   16  C   UNL     1      36.876  11.118  -8.190  1.00  0.00    -0.027 C 
HETATM   17  C   UNL     1      37.069  10.813  -9.489  1.00  0.00    -0.027 C 
BRANCH  17  18
HETATM   18  C   UNL     1      38.094   9.867 -10.058  1.00  0.00     0.053 C 
BRANCH  18  19
HETATM   19  C   UNL     1      37.563   8.453 -10.073  1.00  0.00    -0.027 C 
HETATM   20  C   UNL     1      38.183   7.349 -10.539  1.00  0.00    -0.027 C 
BRANCH  20  21
HETATM   21  C   UNL     1      39.578   7.259 -11.106  1.00  0.00     0.053 C 
BRANCH  21  22
HETATM   22  C   UNL     1      39.564   7.460 -12.603  1.00  0.00    -0.027 C 
HETATM   23  C   UNL     1      40.162   8.448 -13.298  1.00  0.00    -0.031 C 
BRANCH  23  24
HETATM   24  C   UNL     1      40.967   9.587 -12.727  1.00  0.00     0.022 C 
HETATM   25  C   UNL     1      40.343  10.945 -13.020  1.00  0.00     0.009 C 
ENDBRANCH  23  24
ENDBRANCH  21  22
ENDBRANCH  20  21
ENDBRANCH  18  19
ENDBRANCH  17  18
ENDBRANCH  15  16
ENDBRANCH  14  15
ENDBRANCH  12  13
ENDBRANCH  11  12
ENDBRANCH   9  10
ENDBRANCH   8   9
ENDBRANCH   6   7
ENDBRANCH   5   6
ENDBRANCH   3   5
ENDBRANCH   1   3
TORSDOF 15
ENDMDL
MODEL 13
REMARK VINA RESULT:      -5.0     26.064     27.948
REMARK  15 active torsions:
REMARK  status: ('A' for Active; 'I' for Inactive)
REMARK    1  A    between atoms: O_1  and  C_23 
REMARK    2  A    between atoms: C_3  and  C_7 
REMARK    3  A    between atoms: C_3  and  C_8 
REMARK    4  A    between atoms: C_4  and  C_10 
REMARK    5  A    between atoms: C_4  and  C_11 
REMARK    6  A    between atoms: C_5  and  C_12 
REMARK    7  A    between atoms: C_5  and  C_13 
REMARK    8  A    between atoms: C_6  and  C_15 
REMARK    9  A    between atoms: C_6  and  C_16 
REMARK   10  A    between atoms: C_7  and  C_23 
REMARK   11  A    between atoms: C_9  and  C_17 
REMARK   12  A    between atoms: C_9  and  C_18 
REMARK   13  A    between atoms: C_14  and  C_19 
REMARK   14  A    between atoms: C_14  and  C_20 
REMARK   15  A    between atoms: C_21  and  C_22 
ROOT
HETATM    1  O   UNL     1      42.815  12.864 -11.187  1.00  0.00    -0.776 OA
HETATM    2  H   UNL     1      43.707  12.490 -11.173  1.00  0.00     0.167 HD
ENDROOT
BRANCH   1   3
HETATM    3  C   UNL     1      41.744  12.146 -10.787  1.00  0.00     0.139 C 
HETATM    4  O   UNL     1      40.908  12.651 -10.051  1.00  0.00    -0.650 OA
BRANCH   3   5
HETATM    5  C   UNL     1      41.581  10.727 -11.252  1.00  0.00     0.113 C 
BRANCH   5   6
HETATM    6  C   UNL     1      40.867  10.673 -12.607  1.00  0.00     0.037 C 
BRANCH   6   7
HETATM    7  C   UNL     1      41.754  10.041 -13.652  1.00  0.00    -0.030 C 
HETATM    8  C   UNL     1      41.569   8.851 -14.263  1.00  0.00    -0.027 C 
BRANCH   8   9
HETATM    9  C   UNL     1      40.435   7.872 -14.048  1.00  0.00     0.053 C 
BRANCH   9  10
HETATM   10  C   UNL     1      39.731   7.572 -15.348  1.00  0.00    -0.027 C 
HETATM   11  C   UNL     1      38.468   7.918 -15.655  1.00  0.00    -0.027 C 
BRANCH  11  12
HETATM   12  C   UNL     1      37.543   8.719 -14.776  1.00  0.00     0.053 C 
BRANCH  12  13
HETATM   13  C   UNL     1      37.862  10.191 -14.860  1.00  0.00    -0.027 C 
HETATM   14  C   UNL     1      37.521  11.138 -13.967  1.00  0.00    -0.027 C 
BRANCH  14  15
HETATM   15  C   UNL     1      36.706  10.929 -12.718  1.00  0.00     0.053 C 
BRANCH  15  16
HETATM   16  C   UNL     1      37.576  11.234 -11.519  1.00  0.00    -0.027 C 
HETATM   17  C   UNL     1      37.891  10.417 -10.494  1.00  0.00    -0.027 C 
BRANCH  17  18
HETATM   18  C   UNL     1      37.462   8.986 -10.307  1.00  0.00     0.053 C 
BRANCH  18  19
HETATM   19  C   UNL     1      38.456   8.044 -10.945  1.00  0.00    -0.027 C 
HETATM   20  C   UNL     1      39.642   7.641 -10.445  1.00  0.00    -0.027 C 
BRANCH  20  21
HETATM   21  C   UNL     1      40.231   7.994  -9.102  1.00  0.00     0.053 C 
BRANCH  21  22
HETATM   22  C   UNL     1      39.532   7.242  -7.993  1.00  0.00    -0.027 C 
HETATM   23  C   UNL     1      38.945   7.764  -6.898  1.00  0.00    -0.031 C 
BRANCH  23  24
HETATM   24  C   UNL     1      38.873   9.222  -6.527  1.00  0.00     0.022 C 
HETATM   25  C   UNL     1      37.480   9.806  -6.725  1.00  0.00     0.009 C 
ENDBRANCH  23  24
ENDBRANCH  21  22
ENDBRANCH  20  21
ENDBRANCH  18  19
ENDBRANCH  17  18
ENDBRANCH  15  16
ENDBRANCH  14  15
ENDBRANCH  12  13
ENDBRANCH  11  12
ENDBRANCH   9  10
ENDBRANCH   8   9
ENDBRANCH   6   7
ENDBRANCH   5   6
ENDBRANCH   3   5
ENDBRANCH   1   3
TORSDOF 15
ENDMDL
MODEL 14
REMARK VINA RESULT:      -4.9      2.811      4.538
REMARK  15 active torsions:
REMARK  status: ('A' for Active; 'I' for Inactive)
REMARK    1  A    between atoms: O_1  and  C_23 
REMARK    2  A    between atoms: C_3  and  C_7 
REMARK    3  A    between atoms: C_3  and  C_8 
REMARK    4  A    between atoms: C_4  and  C_10 
REMARK    5  A    between atoms: C_4  and  C_11 
REMARK    6  A    between atoms: C_5  and  C_12 
REMARK    7  A    between atoms: C_5  and  C_13 
REMARK    8  A    between atoms: C_6  and  C_15 
REMARK    9  A    between atoms: C_6  and  C_16 
REMARK   10  A    between atoms: C_7  and  C_23 
REMARK   11  A    between atoms: C_9  and  C_17 
REMARK   12  A    between atoms: C_9  and  C_18 
REMARK   13  A    between atoms: C_14  and  C_19 
REMARK   14  A    between atoms: C_14  and  C_20 
REMARK   15  A    between atoms: C_21  and  C_22 
ROOT
HETATM    1  O   UNL     1      32.420 -20.372  -8.720  1.00  0.00    -0.776 OA
HETATM    2  H   UNL     1      32.996 -21.148  -8.681  1.00  0.00     0.167 HD
ENDROOT
BRANCH   1   3
HETATM    3  C   UNL     1      31.205 -20.367  -8.132  1.00  0.00     0.139 C 
HETATM    4  O   UNL     1      31.108 -20.533  -6.925  1.00  0.00    -0.650 OA
BRANCH   3   5
HETATM    5  C   UNL     1      29.974 -20.154  -8.966  1.00  0.00     0.113 C 
BRANCH   5   6
HETATM    6  C   UNL     1      30.006 -18.781  -9.648  1.00  0.00     0.037 C 
BRANCH   6   7
HETATM    7  C   UNL     1      29.917 -17.676  -8.624  1.00  0.00    -0.030 C 
HETATM    8  C   UNL     1      30.797 -16.669  -8.437  1.00  0.00    -0.027 C 
BRANCH   8   9
HETATM    9  C   UNL     1      32.076 -16.409  -9.203  1.00  0.00     0.053 C 
BRANCH   9  10
HETATM   10  C   UNL     1      31.978 -15.126  -9.989  1.00  0.00    -0.027 C 
HETATM   11  C   UNL     1      31.882 -15.031 -11.328  1.00  0.00    -0.027 C 
BRANCH  11  12
HETATM   12  C   UNL     1      31.795 -16.192 -12.283  1.00  0.00     0.053 C 
BRANCH  12  13
HETATM   13  C   UNL     1      30.359 -16.501 -12.626  1.00  0.00    -0.027 C 
HETATM   14  C   UNL     1      29.712 -16.161 -13.756  1.00  0.00    -0.027 C 
BRANCH  14  15
HETATM   15  C   UNL     1      30.280 -15.357 -14.895  1.00  0.00     0.053 C 
BRANCH  15  16
HETATM   16  C   UNL     1      29.313 -14.242 -15.227  1.00  0.00    -0.027 C 
HETATM   17  C   UNL     1      29.008 -13.160 -14.482  1.00  0.00    -0.027 C 
BRANCH  17  18
HETATM   18  C   UNL     1      29.580 -12.791 -13.138  1.00  0.00     0.053 C 
BRANCH  18  19
HETATM   19  C   UNL     1      28.627 -13.174 -12.030  1.00  0.00    -0.027 C 
HETATM   20  C   UNL     1      28.547 -12.640 -10.794  1.00  0.00    -0.027 C 
BRANCH  20  21
HETATM   21  C   UNL     1      29.359 -11.492 -10.245  1.00  0.00     0.053 C 
BRANCH  21  22
HETATM   22  C   UNL     1      30.471 -11.997  -9.356  1.00  0.00    -0.027 C 
HETATM   23  C   UNL     1      31.776 -11.667  -9.415  1.00  0.00    -0.031 C 
BRANCH  23  24
HETATM   24  C   UNL     1      32.420 -10.728 -10.402  1.00  0.00     0.022 C 
HETATM   25  C   UNL     1      32.786 -11.419 -11.710  1.00  0.00     0.009 C 
ENDBRANCH  23  24
ENDBRANCH  21  22
ENDBRANCH  20  21
ENDBRANCH  18  19
ENDBRANCH  17  18
ENDBRANCH  15  16
ENDBRANCH  14  15
ENDBRANCH  12  13
ENDBRANCH  11  12
ENDBRANCH   9  10
ENDBRANCH   8   9
ENDBRANCH   6   7
ENDBRANCH   5   6
ENDBRANCH   3   5
ENDBRANCH   1   3
TORSDOF 15
ENDMDL
MODEL 15
REMARK VINA RESULT:      -4.9      4.697      7.109
REMARK  15 active torsions:
REMARK  status: ('A' for Active; 'I' for Inactive)
REMARK    1  A    between atoms: O_1  and  C_23 
REMARK    2  A    between atoms: C_3  and  C_7 
REMARK    3  A    between atoms: C_3  and  C_8 
REMARK    4  A    between atoms: C_4  and  C_10 
REMARK    5  A    between atoms: C_4  and  C_11 
REMARK    6  A    between atoms: C_5  and  C_12 
REMARK    7  A    between atoms: C_5  and  C_13 
REMARK    8  A    between atoms: C_6  and  C_15 
REMARK    9  A    between atoms: C_6  and  C_16 
REMARK   10  A    between atoms: C_7  and  C_23 
REMARK   11  A    between atoms: C_9  and  C_17 
REMARK   12  A    between atoms: C_9  and  C_18 
REMARK   13  A    between atoms: C_14  and  C_19 
REMARK   14  A    between atoms: C_14  and  C_20 
REMARK   15  A    between atoms: C_21  and  C_22 
ROOT
HETATM    1  O   UNL     1      31.998 -21.070 -19.677  1.00  0.00    -0.776 OA
HETATM    2  H   UNL     1      32.846 -20.950 -19.227  1.00  0.00     0.167 HD
ENDROOT
BRANCH   1   3
HETATM    3  C   UNL     1      30.896 -20.391 -19.293  1.00  0.00     0.139 C 
HETATM    4  O   UNL     1      29.920 -20.995 -18.872  1.00  0.00    -0.650 OA
BRANCH   3   5
HETATM    5  C   UNL     1      30.875 -18.892 -19.384  1.00  0.00     0.113 C 
BRANCH   5   6
HETATM    6  C   UNL     1      29.961 -18.292 -18.309  1.00  0.00     0.037 C 
BRANCH   6   7
HETATM    7  C   UNL     1      30.706 -18.133 -17.005  1.00  0.00    -0.030 C 
HETATM    8  C   UNL     1      30.545 -17.150 -16.093  1.00  0.00    -0.027 C 
BRANCH   8   9
HETATM    9  C   UNL     1      29.587 -15.980 -16.158  1.00  0.00     0.053 C 
BRANCH   9  10
HETATM   10  C   UNL     1      29.233 -15.500 -14.773  1.00  0.00    -0.027 C 
HETATM   11  C   UNL     1      29.647 -14.349 -14.211  1.00  0.00    -0.027 C 
BRANCH  11  12
HETATM   12  C   UNL     1      30.493 -13.302 -14.886  1.00  0.00     0.053 C 
BRANCH  12  13
HETATM   13  C   UNL     1      29.635 -12.199 -15.453  1.00  0.00    -0.027 C 
HETATM   14  C   UNL     1      29.313 -12.017 -16.748  1.00  0.00    -0.027 C 
BRANCH  14  15
HETATM   15  C   UNL     1      29.788 -12.853 -17.906  1.00  0.00     0.053 C 
BRANCH  15  16
HETATM   16  C   UNL     1      29.378 -12.171 -19.192  1.00  0.00    -0.027 C 
HETATM   17  C   UNL     1      30.164 -11.809 -20.226  1.00  0.00    -0.027 C 
BRANCH  17  18
HETATM   18  C   UNL     1      31.650 -12.017 -20.354  1.00  0.00     0.053 C 
BRANCH  18  19
HETATM   19  C   UNL     1      32.405 -10.996 -19.536  1.00  0.00    -0.027 C 
HETATM   20  C   UNL     1      33.435 -11.217 -18.694  1.00  0.00    -0.027 C 
BRANCH  20  21
HETATM   21  C   UNL     1      34.113 -12.534 -18.412  1.00  0.00     0.053 C 
BRANCH  21  22
HETATM   22  C   UNL     1      33.421 -13.266 -17.287  1.00  0.00    -0.027 C 
HETATM   23  C   UNL     1      33.026 -14.555 -17.273  1.00  0.00    -0.031 C 
BRANCH  23  24
HETATM   24  C   UNL     1      33.174 -15.550 -18.394  1.00  0.00     0.022 C 
HETATM   25  C   UNL     1      32.047 -15.452 -19.413  1.00  0.00     0.009 C 
ENDBRANCH  23  24
ENDBRANCH  21  22
ENDBRANCH  20  21
ENDBRANCH  18  19
ENDBRANCH  17  18
ENDBRANCH  15  16
ENDBRANCH  14  15
ENDBRANCH  12  13
ENDBRANCH  11  12
ENDBRANCH   9  10
ENDBRANCH   8   9
ENDBRANCH   6   7
ENDBRANCH   5   6
ENDBRANCH   3   5
ENDBRANCH   1   3
TORSDOF 15
ENDMDL
MODEL 16
REMARK VINA RESULT:      -4.9      5.331      7.501
REMARK  15 active torsions:
REMARK  status: ('A' for Active; 'I' for Inactive)
REMARK    1  A    between atoms: O_1  and  C_23 
REMARK    2  A    between atoms: C_3  and  C_7 
REMARK    3  A    between atoms: C_3  and  C_8 
REMARK    4  A    between atoms: C_4  and  C_10 
REMARK    5  A    between atoms: C_4  and  C_11 
REMARK    6  A    between atoms: C_5  and  C_12 
REMARK    7  A    between atoms: C_5  and  C_13 
REMARK    8  A    between atoms: C_6  and  C_15 
REMARK    9  A    between atoms: C_6  and  C_16 
REMARK   10  A    between atoms: C_7  and  C_23 
REMARK   11  A    between atoms: C_9  and  C_17 
REMARK   12  A    between atoms: C_9  and  C_18 
REMARK   13  A    between atoms: C_14  and  C_19 
REMARK   14  A    between atoms: C_14  and  C_20 
REMARK   15  A    between atoms: C_21  and  C_22 
ROOT
HETATM    1  O   UNL     1      32.706 -20.265 -18.993  1.00  0.00    -0.776 OA
HETATM    2  H   UNL     1      33.503 -20.377 -19.529  1.00  0.00     0.167 HD
ENDROOT
BRANCH   1   3
HETATM    3  C   UNL     1      31.474 -20.420 -19.524  1.00  0.00     0.139 C 
HETATM    4  O   UNL     1      31.347 -20.834 -20.667  1.00  0.00    -0.650 OA
BRANCH   3   5
HETATM    5  C   UNL     1      30.261 -20.084 -18.703  1.00  0.00     0.113 C 
BRANCH   5   6
HETATM    6  C   UNL     1      30.090 -18.566 -18.575  1.00  0.00     0.037 C 
BRANCH   6   7
HETATM    7  C   UNL     1      30.246 -18.132 -17.137  1.00  0.00    -0.030 C 
HETATM    8  C   UNL     1      30.840 -17.006 -16.689  1.00  0.00    -0.027 C 
BRANCH   8   9
HETATM    9  C   UNL     1      31.487 -15.914 -17.514  1.00  0.00     0.053 C 
BRANCH   9  10
HETATM   10  C   UNL     1      32.710 -15.370 -16.821  1.00  0.00    -0.027 C 
HETATM   11  C   UNL     1      33.050 -14.072 -16.731  1.00  0.00    -0.027 C 
BRANCH  11  12
HETATM   12  C   UNL     1      32.239 -12.917 -17.258  1.00  0.00     0.053 C 
BRANCH  12  13
HETATM   13  C   UNL     1      32.581 -11.642 -16.528  1.00  0.00    -0.027 C 
HETATM   14  C   UNL     1      32.087 -11.238 -15.343  1.00  0.00    -0.027 C 
BRANCH  14  15
HETATM   15  C   UNL     1      31.051 -11.958 -14.522  1.00  0.00     0.053 C 
BRANCH  15  16
HETATM   16  C   UNL     1      29.680 -11.561 -15.024  1.00  0.00    -0.027 C 
HETATM   17  C   UNL     1      28.750 -12.347 -15.603  1.00  0.00    -0.027 C 
BRANCH  17  18
HETATM   18  C   UNL     1      28.850 -13.825 -15.874  1.00  0.00     0.053 C 
BRANCH  18  19
HETATM   19  C   UNL     1      27.947 -14.219 -17.020  1.00  0.00    -0.027 C 
HETATM   20  C   UNL     1      28.163 -14.033 -18.338  1.00  0.00    -0.027 C 
BRANCH  20  21
HETATM   21  C   UNL     1      29.389 -13.434 -18.982  1.00  0.00     0.053 C 
BRANCH  21  22
HETATM   22  C   UNL     1      29.014 -12.272 -19.873  1.00  0.00    -0.027 C 
HETATM   23  C   UNL     1      28.525 -12.331 -21.127  1.00  0.00    -0.031 C 
BRANCH  23  24
HETATM   24  C   UNL     1      28.260 -13.579 -21.929  1.00  0.00     0.022 C 
HETATM   25  C   UNL     1      26.783 -13.952 -21.955  1.00  0.00     0.009 C 
ENDBRANCH  23  24
ENDBRANCH  21  22
ENDBRANCH  20  21
ENDBRANCH  18  19
ENDBRANCH  17  18
ENDBRANCH  15  16
ENDBRANCH  14  15
ENDBRANCH  12  13
ENDBRANCH  11  12
ENDBRANCH   9  10
ENDBRANCH   8   9
ENDBRANCH   6   7
ENDBRANCH   5   6
ENDBRANCH   3   5
ENDBRANCH   1   3
TORSDOF 15
ENDMDL
MODEL 17
REMARK VINA RESULT:      -4.9     26.193     28.762
REMARK  15 active torsions:
REMARK  status: ('A' for Active; 'I' for Inactive)
REMARK    1  A    between atoms: O_1  and  C_23 
REMARK    2  A    between atoms: C_3  and  C_7 
REMARK    3  A    between atoms: C_3  and  C_8 
REMARK    4  A    between atoms: C_4  and  C_10 
REMARK    5  A    between atoms: C_4  and  C_11 
REMARK    6  A    between atoms: C_5  and  C_12 
REMARK    7  A    between atoms: C_5  and  C_13 
REMARK    8  A    between atoms: C_6  and  C_15 
REMARK    9  A    between atoms: C_6  and  C_16 
REMARK   10  A    between atoms: C_7  and  C_23 
REMARK   11  A    between atoms: C_9  and  C_17 
REMARK   12  A    between atoms: C_9  and  C_18 
REMARK   13  A    between atoms: C_14  and  C_19 
REMARK   14  A    between atoms: C_14  and  C_20 
REMARK   15  A    between atoms: C_21  and  C_22 
ROOT
HETATM    1  O   UNL     1      39.772  14.903  -6.736  1.00  0.00    -0.776 OA
HETATM    2  H   UNL     1      40.600  15.300  -6.433  1.00  0.00     0.167 HD
ENDROOT
BRANCH   1   3
HETATM    3  C   UNL     1      39.340  15.060  -8.006  1.00  0.00     0.139 C 
HETATM    4  O   UNL     1      38.736  16.074  -8.327  1.00  0.00    -0.650 OA
BRANCH   3   5
HETATM    5  C   UNL     1      39.607  13.987  -9.023  1.00  0.00     0.113 C 
BRANCH   5   6
HETATM    6  C   UNL     1      38.524  12.903  -8.972  1.00  0.00     0.037 C 
BRANCH   6   7
HETATM    7  C   UNL     1      38.061  12.547 -10.364  1.00  0.00    -0.030 C 
HETATM    8  C   UNL     1      37.504  11.383 -10.762  1.00  0.00    -0.027 C 
BRANCH   8   9
HETATM    9  C   UNL     1      37.212  10.164  -9.914  1.00  0.00     0.053 C 
BRANCH   9  10
HETATM   10  C   UNL     1      37.338   8.901 -10.728  1.00  0.00    -0.027 C 
HETATM   11  C   UNL     1      38.075   7.825 -10.400  1.00  0.00    -0.027 C 
BRANCH  11  12
HETATM   12  C   UNL     1      38.865   7.662  -9.127  1.00  0.00     0.053 C 
BRANCH  12  13
HETATM   13  C   UNL     1      40.345   7.610  -9.416  1.00  0.00    -0.027 C 
HETATM   14  C   UNL     1      41.190   8.657  -9.470  1.00  0.00    -0.027 C 
BRANCH  14  15
HETATM   15  C   UNL     1      40.818  10.106  -9.302  1.00  0.00     0.053 C 
BRANCH  15  16
HETATM   16  C   UNL     1      41.564  10.917 -10.338  1.00  0.00    -0.027 C 
HETATM   17  C   UNL     1      41.400  10.903 -11.676  1.00  0.00    -0.027 C 
BRANCH  17  18
HETATM   18  C   UNL     1      40.412  10.082 -12.463  1.00  0.00     0.053 C 
BRANCH  18  19
HETATM   19  C   UNL     1      41.127   9.191 -13.452  1.00  0.00    -0.027 C 
HETATM   20  C   UNL     1      40.685   8.032 -13.982  1.00  0.00    -0.027 C 
BRANCH  20  21
HETATM   21  C   UNL     1      39.344   7.380 -13.752  1.00  0.00     0.053 C 
BRANCH  21  22
HETATM   22  C   UNL     1      38.489   7.455 -14.996  1.00  0.00    -0.027 C 
HETATM   23  C   UNL     1      37.660   8.454 -15.356  1.00  0.00    -0.031 C 
BRANCH  23  24
HETATM   24  C   UNL     1      37.386   9.717 -14.580  1.00  0.00     0.022 C 
HETATM   25  C   UNL     1      38.014  10.945 -15.226  1.00  0.00     0.009 C 
ENDBRANCH  23  24
ENDBRANCH  21  22
ENDBRANCH  20  21
ENDBRANCH  18  19
ENDBRANCH  17  18
ENDBRANCH  15  16
ENDBRANCH  14  15
ENDBRANCH  12  13
ENDBRANCH  11  12
ENDBRANCH   9  10
ENDBRANCH   8   9
ENDBRANCH   6   7
ENDBRANCH   5   6
ENDBRANCH   3   5
ENDBRANCH   1   3
TORSDOF 15
ENDMDL
MODEL 18
REMARK VINA RESULT:      -4.9      5.251      8.436
REMARK  15 active torsions:
REMARK  status: ('A' for Active; 'I' for Inactive)
REMARK    1  A    between atoms: O_1  and  C_23 
REMARK    2  A    between atoms: C_3  and  C_7 
REMARK    3  A    between atoms: C_3  and  C_8 
REMARK    4  A    between atoms: C_4  and  C_10 
REMARK    5  A    between atoms: C_4  and  C_11 
REMARK    6  A    between atoms: C_5  and  C_12 
REMARK    7  A    between atoms: C_5  and  C_13 
REMARK    8  A    between atoms: C_6  and  C_15 
REMARK    9  A    between atoms: C_6  and  C_16 
REMARK   10  A    between atoms: C_7  and  C_23 
REMARK   11  A    between atoms: C_9  and  C_17 
REMARK   12  A    between atoms: C_9  and  C_18 
REMARK   13  A    between atoms: C_14  and  C_19 
REMARK   14  A    between atoms: C_14  and  C_20 
REMARK   15  A    between atoms: C_21  and  C_22 
ROOT
HETATM    1  O   UNL     1      29.821 -21.168 -13.972  1.00  0.00    -0.776 OA
HETATM    2  H   UNL     1      29.856 -21.433 -13.042  1.00  0.00     0.167 HD
ENDROOT
BRANCH   1   3
HETATM    3  C   UNL     1      30.809 -20.438 -14.533  1.00  0.00     0.139 C 
HETATM    4  O   UNL     1      31.439 -20.886 -15.480  1.00  0.00    -0.650 OA
BRANCH   3   5
HETATM    5  C   UNL     1      31.126 -19.073 -13.992  1.00  0.00     0.113 C 
BRANCH   5   6
HETATM    6  C   UNL     1      30.101 -18.041 -14.474  1.00  0.00     0.037 C 
BRANCH   6   7
HETATM    7  C   UNL     1      30.640 -17.264 -15.651  1.00  0.00    -0.030 C 
HETATM    8  C   UNL     1      30.336 -15.994 -15.994  1.00  0.00    -0.027 C 
BRANCH   8   9
HETATM    9  C   UNL     1      29.388 -15.050 -15.286  1.00  0.00     0.053 C 
BRANCH   9  10
HETATM   10  C   UNL     1      28.259 -14.640 -16.197  1.00  0.00    -0.027 C 
HETATM   11  C   UNL     1      28.186 -13.490 -16.890  1.00  0.00    -0.027 C 
BRANCH  11  12
HETATM   12  C   UNL     1      29.250 -12.424 -16.928  1.00  0.00     0.053 C 
BRANCH  12  13
HETATM   13  C   UNL     1      30.312 -12.759 -17.946  1.00  0.00    -0.027 C 
HETATM   14  C   UNL     1      30.344 -12.363 -19.233  1.00  0.00    -0.027 C 
BRANCH  14  15
HETATM   15  C   UNL     1      29.296 -11.541 -19.934  1.00  0.00     0.053 C 
BRANCH  15  16
HETATM   16  C   UNL     1      28.260 -12.476 -20.516  1.00  0.00    -0.027 C 
HETATM   17  C   UNL     1      28.376 -13.271 -21.599  1.00  0.00    -0.027 C 
BRANCH  17  18
HETATM   18  C   UNL     1      29.583 -13.430 -22.485  1.00  0.00     0.053 C 
BRANCH  18  19
HETATM   19  C   UNL     1      29.775 -14.878 -22.870  1.00  0.00    -0.027 C 
HETATM   20  C   UNL     1      30.405 -15.839 -22.165  1.00  0.00    -0.027 C 
BRANCH  20  21
HETATM   21  C   UNL     1      31.021 -15.706 -20.794  1.00  0.00     0.053 C 
BRANCH  21  22
HETATM   22  C   UNL     1      30.006 -16.008 -19.716  1.00  0.00    -0.027 C 
HETATM   23  C   UNL     1      29.674 -17.217 -19.224  1.00  0.00    -0.031 C 
BRANCH  23  24
HETATM   24  C   UNL     1      30.235 -18.547 -19.658  1.00  0.00     0.022 C 
HETATM   25  C   UNL     1      30.091 -19.618 -18.585  1.00  0.00     0.009 C 
ENDBRANCH  23  24
ENDBRANCH  21  22
ENDBRANCH  20  21
ENDBRANCH  18  19
ENDBRANCH  17  18
ENDBRANCH  15  16
ENDBRANCH  14  15
ENDBRANCH  12  13
ENDBRANCH  11  12
ENDBRANCH   9  10
ENDBRANCH   8   9
ENDBRANCH   6   7
ENDBRANCH   5   6
ENDBRANCH   3   5
ENDBRANCH   1   3
TORSDOF 15
ENDMDL
MODEL 19
REMARK VINA RESULT:      -4.9     25.909     28.053
REMARK  15 active torsions:
REMARK  status: ('A' for Active; 'I' for Inactive)
REMARK    1  A    between atoms: O_1  and  C_23 
REMARK    2  A    between atoms: C_3  and  C_7 
REMARK    3  A    between atoms: C_3  and  C_8 
REMARK    4  A    between atoms: C_4  and  C_10 
REMARK    5  A    between atoms: C_4  and  C_11 
REMARK    6  A    between atoms: C_5  and  C_12 
REMARK    7  A    between atoms: C_5  and  C_13 
REMARK    8  A    between atoms: C_6  and  C_15 
REMARK    9  A    between atoms: C_6  and  C_16 
REMARK   10  A    between atoms: C_7  and  C_23 
REMARK   11  A    between atoms: C_9  and  C_17 
REMARK   12  A    between atoms: C_9  and  C_18 
REMARK   13  A    between atoms: C_14  and  C_19 
REMARK   14  A    between atoms: C_14  and  C_20 
REMARK   15  A    between atoms: C_21  and  C_22 
ROOT
HETATM    1  O   UNL     1      41.159  12.876 -10.657  1.00  0.00    -0.776 OA
HETATM    2  H   UNL     1      40.216  12.833 -10.866  1.00  0.00     0.167 HD
ENDROOT
BRANCH   1   3
HETATM    3  C   UNL     1      41.824  11.804 -10.177  1.00  0.00     0.139 C 
HETATM    4  O   UNL     1      43.003  11.902  -9.867  1.00  0.00    -0.650 OA
BRANCH   3   5
HETATM    5  C   UNL     1      41.110  10.491 -10.021  1.00  0.00     0.113 C 
BRANCH   5   6
HETATM    6  C   UNL     1      41.754   9.645  -8.917  1.00  0.00     0.037 C 
BRANCH   6   7
HETATM    7  C   UNL     1      40.810   9.483  -7.750  1.00  0.00    -0.030 C 
HETATM    8  C   UNL     1      39.837   8.557  -7.616  1.00  0.00    -0.027 C 
BRANCH   8   9
HETATM    9  C   UNL     1      39.462   7.465  -8.595  1.00  0.00     0.053 C 
BRANCH   9  10
HETATM   10  C   UNL     1      38.367   7.928  -9.522  1.00  0.00    -0.027 C 
HETATM   11  C   UNL     1      38.452   8.002 -10.863  1.00  0.00    -0.027 C 
BRANCH  11  12
HETATM   12  C   UNL     1      39.639   7.580 -11.688  1.00  0.00     0.053 C 
BRANCH  12  13
HETATM   13  C   UNL     1      39.224   7.252 -13.100  1.00  0.00    -0.027 C 
HETATM   14  C   UNL     1      39.861   7.613 -14.230  1.00  0.00    -0.027 C 
BRANCH  14  15
HETATM   15  C   UNL     1      41.100   8.464 -14.315  1.00  0.00     0.053 C 
BRANCH  15  16
HETATM   16  C   UNL     1      40.732   9.786 -14.953  1.00  0.00    -0.027 C 
HETATM   17  C   UNL     1      40.556  10.054 -16.262  1.00  0.00    -0.027 C 
BRANCH  17  18
HETATM   18  C   UNL     1      40.668   9.087 -17.411  1.00  0.00     0.053 C 
BRANCH  18  19
HETATM   19  C   UNL     1      39.315   8.513 -17.760  1.00  0.00    -0.027 C 
HETATM   20  C   UNL     1      38.978   7.814 -18.863  1.00  0.00    -0.027 C 
BRANCH  20  21
HETATM   21  C   UNL     1      39.893   7.391 -19.985  1.00  0.00     0.053 C 
BRANCH  21  22
HETATM   22  C   UNL     1      39.559   8.132 -21.259  1.00  0.00    -0.027 C 
HETATM   23  C   UNL     1      40.050   9.319 -21.664  1.00  0.00    -0.031 C 
BRANCH  23  24
HETATM   24  C   UNL     1      41.033  10.184 -20.919  1.00  0.00     0.022 C 
HETATM   25  C   UNL     1      40.393  11.451 -20.365  1.00  0.00     0.009 C 
ENDBRANCH  23  24
ENDBRANCH  21  22
ENDBRANCH  20  21
ENDBRANCH  18  19
ENDBRANCH  17  18
ENDBRANCH  15  16
ENDBRANCH  14  15
ENDBRANCH  12  13
ENDBRANCH  11  12
ENDBRANCH   9  10
ENDBRANCH   8   9
ENDBRANCH   6   7
ENDBRANCH   5   6
ENDBRANCH   3   5
ENDBRANCH   1   3
TORSDOF 15
ENDMDL
MODEL 20
REMARK VINA RESULT:      -4.9      2.767      4.825
REMARK  15 active torsions:
REMARK  status: ('A' for Active; 'I' for Inactive)
REMARK    1  A    between atoms: O_1  and  C_23 
REMARK    2  A    between atoms: C_3  and  C_7 
REMARK    3  A    between atoms: C_3  and  C_8 
REMARK    4  A    between atoms: C_4  and  C_10 
REMARK    5  A    between atoms: C_4  and  C_11 
REMARK    6  A    between atoms: C_5  and  C_12 
REMARK    7  A    between atoms: C_5  and  C_13 
REMARK    8  A    between atoms: C_6  and  C_15 
REMARK    9  A    between atoms: C_6  and  C_16 
REMARK   10  A    between atoms: C_7  and  C_23 
REMARK   11  A    between atoms: C_9  and  C_17 
REMARK   12  A    between atoms: C_9  and  C_18 
REMARK   13  A    between atoms: C_14  and  C_19 
REMARK   14  A    between atoms: C_14  and  C_20 
REMARK   15  A    between atoms: C_21  and  C_22 
ROOT
HETATM    1  O   UNL     1      32.113 -20.001 -18.555  1.00  0.00    -0.776 OA
HETATM    2  H   UNL     1      32.639 -19.190 -18.566  1.00  0.00     0.167 HD
ENDROOT
BRANCH   1   3
HETATM    3  C   UNL     1      30.904 -20.048 -17.955  1.00  0.00     0.139 C 
HETATM    4  O   UNL     1      30.024 -20.767 -18.406  1.00  0.00    -0.650 OA
BRANCH   3   5
HETATM    5  C   UNL     1      30.646 -19.216 -16.731  1.00  0.00     0.113 C 
BRANCH   5   6
HETATM    6  C   UNL     1      30.213 -17.797 -17.115  1.00  0.00     0.037 C 
BRANCH   6   7
HETATM    7  C   UNL     1      31.147 -16.774 -16.514  1.00  0.00    -0.030 C 
HETATM    8  C   UNL     1      31.003 -16.139 -15.331  1.00  0.00    -0.027 C 
BRANCH   8   9
HETATM    9  C   UNL     1      29.878 -16.298 -14.331  1.00  0.00     0.053 C 
BRANCH   9  10
HETATM   10  C   UNL     1      30.087 -17.523 -13.478  1.00  0.00    -0.027 C 
HETATM   11  C   UNL     1      30.165 -17.542 -12.135  1.00  0.00    -0.027 C 
BRANCH  11  12
HETATM   12  C   UNL     1      29.999 -16.347 -11.233  1.00  0.00     0.053 C 
BRANCH  12  13
HETATM   13  C   UNL     1      31.242 -16.116 -10.412  1.00  0.00    -0.027 C 
HETATM   14  C   UNL     1      32.353 -15.464 -10.803  1.00  0.00    -0.027 C 
BRANCH  14  15
HETATM   15  C   UNL     1      32.601 -14.873 -12.165  1.00  0.00     0.053 C 
BRANCH  15  16
HETATM   16  C   UNL     1      32.754 -13.375 -12.018  1.00  0.00    -0.027 C 
HETATM   17  C   UNL     1      31.964 -12.408 -12.526  1.00  0.00    -0.027 C 
BRANCH  17  18
HETATM   18  C   UNL     1      30.718 -12.591 -13.351  1.00  0.00     0.053 C 
BRANCH  18  19
HETATM   19  C   UNL     1      31.007 -12.348 -14.814  1.00  0.00    -0.027 C 
HETATM   20  C   UNL     1      30.116 -12.113 -15.799  1.00  0.00    -0.027 C 
BRANCH  20  21
HETATM   21  C   UNL     1      28.620 -11.983 -15.661  1.00  0.00     0.053 C 
BRANCH  21  22
HETATM   22  C   UNL     1      27.975 -13.340 -15.496  1.00  0.00    -0.027 C 
HETATM   23  C   UNL     1      27.602 -14.189 -16.473  1.00  0.00    -0.031 C 
BRANCH  23  24
HETATM   24  C   UNL     1      27.731 -13.962 -17.956  1.00  0.00     0.022 C 
HETATM   25  C   UNL     1      29.056 -14.468 -18.511  1.00  0.00     0.009 C 
ENDBRANCH  23  24
ENDBRANCH  21  22
ENDBRANCH  20  21
ENDBRANCH  18  19
ENDBRANCH  17  18
ENDBRANCH  15  16
ENDBRANCH  14  15
ENDBRANCH  12  13
ENDBRANCH  11  12
ENDBRANCH   9  10
ENDBRANCH   8   9
ENDBRANCH   6   7
ENDBRANCH   5   6
ENDBRANCH   3   5
ENDBRANCH   1   3
TORSDOF 15
ENDMDL
