MODEL 1
REMARK VINA RESULT:      -5.4      0.000      0.000
REMARK  15 active torsions:
REMARK  status: ('A' for Active; 'I' for Inactive)
REMARK    1  A    between atoms: O_1  and  C_23 
REMARK    2  A    between atoms: C_3  and  C_7 
REMARK    3  A    between atoms: C_3  and  C_8 
REMARK    4  A    between atoms: C_4  and  C_10 
REMARK    5  A    between atoms: C_4  and  C_11 
REMARK    6  A    between atoms: C_5  and  C_12 
REMARK    7  A    between atoms: C_5  and  C_13 
REMARK    8  A    between atoms: C_6  and  C_15 
REMARK    9  A    between atoms: C_6  and  C_16 
REMARK   10  A    between atoms: C_7  and  C_23 
REMARK   11  A    between atoms: C_9  and  C_17 
REMARK   12  A    between atoms: C_9  and  C_18 
REMARK   13  A    between atoms: C_14  and  C_19 
REMARK   14  A    between atoms: C_14  and  C_20 
REMARK   15  A    between atoms: C_21  and  C_22 
ROOT
HETATM    1  O   UNL     1      39.518   7.431 -18.484  1.00  0.00    -0.776 OA
HETATM    2  H   UNL     1      40.407   7.264 -18.824  1.00  0.00     0.167 HD
ENDROOT
BRANCH   1   3
HETATM    3  C   UNL     1      39.285   7.573 -17.161  1.00  0.00     0.139 C 
HETATM    4  O   UNL     1      39.553   6.661 -16.391  1.00  0.00    -0.650 OA
BRANCH   3   5
HETATM    5  C   UNL     1      38.699   8.854 -16.640  1.00  0.00     0.113 C 
BRANCH   5   6
HETATM    6  C   UNL     1      37.618   8.574 -15.591  1.00  0.00     0.037 C 
BRANCH   6   7
HETATM    7  C   UNL     1      37.755   9.518 -14.420  1.00  0.00    -0.030 C 
HETATM    8  C   UNL     1      38.680   9.465 -13.438  1.00  0.00    -0.027 C 
BRANCH   8   9
HETATM    9  C   UNL     1      39.794   8.454 -13.275  1.00  0.00     0.053 C 
BRANCH   9  10
HETATM   10  C   UNL     1      39.300   7.221 -12.561  1.00  0.00    -0.027 C 
HETATM   11  C   UNL     1      39.366   7.002 -11.236  1.00  0.00    -0.027 C 
BRANCH  11  12
HETATM   12  C   UNL     1      39.895   7.975 -10.214  1.00  0.00     0.053 C 
BRANCH  12  13
HETATM   13  C   UNL     1      38.794   8.439  -9.293  1.00  0.00    -0.027 C 
HETATM   14  C   UNL     1      38.615   8.076  -8.009  1.00  0.00    -0.027 C 
BRANCH  14  15
HETATM   15  C   UNL     1      39.454   7.090  -7.241  1.00  0.00     0.053 C 
BRANCH  15  16
HETATM   16  C   UNL     1      38.986   7.077  -5.803  1.00  0.00    -0.027 C 
HETATM   17  C   UNL     1      39.565   7.668  -4.737  1.00  0.00    -0.027 C 
BRANCH  17  18
HETATM   18  C   UNL     1      40.818   8.503  -4.731  1.00  0.00     0.053 C 
BRANCH  18  19
HETATM   19  C   UNL     1      40.495   9.950  -5.021  1.00  0.00    -0.027 C 
HETATM   20  C   UNL     1      40.788  10.649  -6.137  1.00  0.00    -0.027 C 
BRANCH  20  21
HETATM   21  C   UNL     1      41.460  10.131  -7.385  1.00  0.00     0.053 C 
BRANCH  21  22
HETATM   22  C   UNL     1      42.382  11.174  -7.972  1.00  0.00    -0.027 C 
HETATM   23  C   UNL     1      42.217  11.852  -9.124  1.00  0.00    -0.031 C 
BRANCH  23  24
HETATM   24  C   UNL     1      41.076  11.704 -10.097  1.00  0.00     0.022 C 
HETATM   25  C   UNL     1      41.491  10.991 -11.378  1.00  0.00     0.009 C 
ENDBRANCH  23  24
ENDBRANCH  21  22
ENDBRANCH  20  21
ENDBRANCH  18  19
ENDBRANCH  17  18
ENDBRANCH  15  16
ENDBRANCH  14  15
ENDBRANCH  12  13
ENDBRANCH  11  12
ENDBRANCH   9  10
ENDBRANCH   8   9
ENDBRANCH   6   7
ENDBRANCH   5   6
ENDBRANCH   3   5
ENDBRANCH   1   3
TORSDOF 15
ENDMDL
MODEL 2
REMARK VINA RESULT:      -5.3     25.924     27.872
REMARK  15 active torsions:
REMARK  status: ('A' for Active; 'I' for Inactive)
REMARK    1  A    between atoms: O_1  and  C_23 
REMARK    2  A    between atoms: C_3  and  C_7 
REMARK    3  A    between atoms: C_3  and  C_8 
REMARK    4  A    between atoms: C_4  and  C_10 
REMARK    5  A    between atoms: C_4  and  C_11 
REMARK    6  A    between atoms: C_5  and  C_12 
REMARK    7  A    between atoms: C_5  and  C_13 
REMARK    8  A    between atoms: C_6  and  C_15 
REMARK    9  A    between atoms: C_6  and  C_16 
REMARK   10  A    between atoms: C_7  and  C_23 
REMARK   11  A    between atoms: C_9  and  C_17 
REMARK   12  A    between atoms: C_9  and  C_18 
REMARK   13  A    between atoms: C_14  and  C_19 
REMARK   14  A    between atoms: C_14  and  C_20 
REMARK   15  A    between atoms: C_21  and  C_22 
ROOT
HETATM    1  O   UNL     1      32.419 -20.632 -14.529  1.00  0.00    -0.776 OA
HETATM    2  H   UNL     1      33.014 -21.261 -14.960  1.00  0.00     0.167 HD
ENDROOT
BRANCH   1   3
HETATM    3  C   UNL     1      31.170 -20.412 -14.995  1.00  0.00     0.139 C 
HETATM    4  O   UNL     1      30.782 -20.987 -16.001  1.00  0.00    -0.650 OA
BRANCH   3   5
HETATM    5  C   UNL     1      30.260 -19.462 -14.270  1.00  0.00     0.113 C 
BRANCH   5   6
HETATM    6  C   UNL     1      31.059 -18.323 -13.626  1.00  0.00     0.037 C 
BRANCH   6   7
HETATM    7  C   UNL     1      30.205 -17.567 -12.637  1.00  0.00    -0.030 C 
HETATM    8  C   UNL     1      30.166 -17.739 -11.298  1.00  0.00    -0.027 C 
BRANCH   8   9
HETATM    9  C   UNL     1      30.964 -18.725 -10.473  1.00  0.00     0.053 C 
BRANCH   9  10
HETATM   10  C   UNL     1      30.074 -19.813  -9.927  1.00  0.00    -0.027 C 
HETATM   11  C   UNL     1      30.228 -20.435  -8.745  1.00  0.00    -0.027 C 
BRANCH  11  12
HETATM   12  C   UNL     1      31.287 -20.117  -7.721  1.00  0.00     0.053 C 
BRANCH  12  13
HETATM   13  C   UNL     1      30.717 -20.158  -6.326  1.00  0.00    -0.027 C 
HETATM   14  C   UNL     1      30.574 -19.116  -5.486  1.00  0.00    -0.027 C 
BRANCH  14  15
HETATM   15  C   UNL     1      31.001 -17.697  -5.751  1.00  0.00     0.053 C 
BRANCH  15  16
HETATM   16  C   UNL     1      30.048 -17.088  -6.755  1.00  0.00    -0.027 C 
HETATM   17  C   UNL     1      30.333 -16.225  -7.751  1.00  0.00    -0.027 C 
BRANCH  17  18
HETATM   18  C   UNL     1      31.686 -15.673  -8.117  1.00  0.00     0.053 C 
BRANCH  18  19
HETATM   19  C   UNL     1      31.665 -15.089  -9.510  1.00  0.00    -0.027 C 
HETATM   20  C   UNL     1      31.422 -13.810  -9.860  1.00  0.00    -0.027 C 
BRANCH  20  21
HETATM   21  C   UNL     1      31.167 -12.646  -8.935  1.00  0.00     0.053 C 
BRANCH  21  22
HETATM   22  C   UNL     1      29.705 -12.563  -8.564  1.00  0.00    -0.027 C 
HETATM   23  C   UNL     1      29.177 -12.555  -7.324  1.00  0.00    -0.031 C 
BRANCH  23  24
HETATM   24  C   UNL     1      29.936 -12.647  -6.026  1.00  0.00     0.022 C 
HETATM   25  C   UNL     1      29.429 -13.772  -5.133  1.00  0.00     0.009 C 
ENDBRANCH  23  24
ENDBRANCH  21  22
ENDBRANCH  20  21
ENDBRANCH  18  19
ENDBRANCH  17  18
ENDBRANCH  15  16
ENDBRANCH  14  15
ENDBRANCH  12  13
ENDBRANCH  11  12
ENDBRANCH   9  10
ENDBRANCH   8   9
ENDBRANCH   6   7
ENDBRANCH   5   6
ENDBRANCH   3   5
ENDBRANCH   1   3
TORSDOF 15
ENDMDL
MODEL 3
REMARK VINA RESULT:      -5.2     24.902     27.200
REMARK  15 active torsions:
REMARK  status: ('A' for Active; 'I' for Inactive)
REMARK    1  A    between atoms: O_1  and  C_23 
REMARK    2  A    between atoms: C_3  and  C_7 
REMARK    3  A    between atoms: C_3  and  C_8 
REMARK    4  A    between atoms: C_4  and  C_10 
REMARK    5  A    between atoms: C_4  and  C_11 
REMARK    6  A    between atoms: C_5  and  C_12 
REMARK    7  A    between atoms: C_5  and  C_13 
REMARK    8  A    between atoms: C_6  and  C_15 
REMARK    9  A    between atoms: C_6  and  C_16 
REMARK   10  A    between atoms: C_7  and  C_23 
REMARK   11  A    between atoms: C_9  and  C_17 
REMARK   12  A    between atoms: C_9  and  C_18 
REMARK   13  A    between atoms: C_14  and  C_19 
REMARK   14  A    between atoms: C_14  and  C_20 
REMARK   15  A    between atoms: C_21  and  C_22 
ROOT
HETATM    1  O   UNL     1      32.582 -20.207 -14.148  1.00  0.00    -0.776 OA
HETATM    2  H   UNL     1      32.657 -19.780 -13.283  1.00  0.00     0.167 HD
ENDROOT
BRANCH   1   3
HETATM    3  C   UNL     1      31.380 -20.419 -14.726  1.00  0.00     0.139 C 
HETATM    4  O   UNL     1      31.317 -20.780 -15.892  1.00  0.00    -0.650 OA
BRANCH   3   5
HETATM    5  C   UNL     1      30.123 -20.216 -13.929  1.00  0.00     0.113 C 
BRANCH   5   6
HETATM    6  C   UNL     1      29.921 -18.734 -13.594  1.00  0.00     0.037 C 
BRANCH   6   7
HETATM    7  C   UNL     1      30.155 -18.483 -12.124  1.00  0.00    -0.030 C 
HETATM    8  C   UNL     1      30.554 -17.328 -11.550  1.00  0.00    -0.027 C 
BRANCH   8   9
HETATM    9  C   UNL     1      30.861 -16.015 -12.238  1.00  0.00     0.053 C 
BRANCH   9  10
HETATM   10  C   UNL     1      32.345 -15.860 -12.459  1.00  0.00    -0.027 C 
HETATM   11  C   UNL     1      32.930 -15.446 -13.597  1.00  0.00    -0.027 C 
BRANCH  11  12
HETATM   12  C   UNL     1      32.206 -15.007 -14.843  1.00  0.00     0.053 C 
BRANCH  12  13
HETATM   13  C   UNL     1      31.654 -16.195 -15.592  1.00  0.00    -0.027 C 
HETATM   14  C   UNL     1      30.483 -16.254 -16.252  1.00  0.00    -0.027 C 
BRANCH  14  15
HETATM   15  C   UNL     1      29.456 -15.156 -16.338  1.00  0.00     0.053 C 
BRANCH  15  16
HETATM   16  C   UNL     1      28.578 -15.223 -15.108  1.00  0.00    -0.027 C 
HETATM   17  C   UNL     1      28.313 -14.239 -14.225  1.00  0.00    -0.027 C 
BRANCH  17  18
HETATM   18  C   UNL     1      28.819 -12.821 -14.264  1.00  0.00     0.053 C 
BRANCH  18  19
HETATM   19  C   UNL     1      29.988 -12.646 -13.323  1.00  0.00    -0.027 C 
HETATM   20  C   UNL     1      29.946 -12.420 -11.994  1.00  0.00    -0.027 C 
BRANCH  20  21
HETATM   21  C   UNL     1      28.716 -12.344 -11.123  1.00  0.00     0.053 C 
BRANCH  21  22
HETATM   22  C   UNL     1      28.293 -13.721 -10.669  1.00  0.00    -0.027 C 
HETATM   23  C   UNL     1      28.693 -14.373  -9.560  1.00  0.00    -0.031 C 
BRANCH  23  24
HETATM   24  C   UNL     1      29.674 -13.874  -8.531  1.00  0.00     0.022 C 
HETATM   25  C   UNL     1      29.024 -12.957  -7.502  1.00  0.00     0.009 C 
ENDBRANCH  23  24
ENDBRANCH  21  22
ENDBRANCH  20  21
ENDBRANCH  18  19
ENDBRANCH  17  18
ENDBRANCH  15  16
ENDBRANCH  14  15
ENDBRANCH  12  13
ENDBRANCH  11  12
ENDBRANCH   9  10
ENDBRANCH   8   9
ENDBRANCH   6   7
ENDBRANCH   5   6
ENDBRANCH   3   5
ENDBRANCH   1   3
TORSDOF 15
ENDMDL
MODEL 4
REMARK VINA RESULT:      -5.0     24.734     26.895
REMARK  15 active torsions:
REMARK  status: ('A' for Active; 'I' for Inactive)
REMARK    1  A    between atoms: O_1  and  C_23 
REMARK    2  A    between atoms: C_3  and  C_7 
REMARK    3  A    between atoms: C_3  and  C_8 
REMARK    4  A    between atoms: C_4  and  C_10 
REMARK    5  A    between atoms: C_4  and  C_11 
REMARK    6  A    between atoms: C_5  and  C_12 
REMARK    7  A    between atoms: C_5  and  C_13 
REMARK    8  A    between atoms: C_6  and  C_15 
REMARK    9  A    between atoms: C_6  and  C_16 
REMARK   10  A    between atoms: C_7  and  C_23 
REMARK   11  A    between atoms: C_9  and  C_17 
REMARK   12  A    between atoms: C_9  and  C_18 
REMARK   13  A    between atoms: C_14  and  C_19 
REMARK   14  A    between atoms: C_14  and  C_20 
REMARK   15  A    between atoms: C_21  and  C_22 
ROOT
HETATM    1  O   UNL     1      32.461 -20.249 -13.938  1.00  0.00    -0.776 OA
HETATM    2  H   UNL     1      32.582 -19.769 -13.108  1.00  0.00     0.167 HD
ENDROOT
BRANCH   1   3
HETATM    3  C   UNL     1      31.251 -20.337 -14.531  1.00  0.00     0.139 C 
HETATM    4  O   UNL     1      31.130 -20.934 -15.592  1.00  0.00    -0.650 OA
BRANCH   3   5
HETATM    5  C   UNL     1      30.054 -19.703 -13.881  1.00  0.00     0.113 C 
BRANCH   5   6
HETATM    6  C   UNL     1      30.437 -18.386 -13.196  1.00  0.00     0.037 C 
BRANCH   6   7
HETATM    7  C   UNL     1      30.341 -18.519 -11.695  1.00  0.00    -0.030 C 
HETATM    8  C   UNL     1      30.392 -17.522 -10.787  1.00  0.00    -0.027 C 
BRANCH   8   9
HETATM    9  C   UNL     1      30.557 -16.041 -11.052  1.00  0.00     0.053 C 
BRANCH   9  10
HETATM   10  C   UNL     1      31.982 -15.717 -11.421  1.00  0.00    -0.027 C 
HETATM   11  C   UNL     1      32.370 -14.830 -12.355  1.00  0.00    -0.027 C 
BRANCH  11  12
HETATM   12  C   UNL     1      31.449 -13.953 -13.163  1.00  0.00     0.053 C 
BRANCH  12  13
HETATM   13  C   UNL     1      30.576 -14.782 -14.071  1.00  0.00    -0.027 C 
HETATM   14  C   UNL     1      29.269 -14.585 -14.328  1.00  0.00    -0.027 C 
BRANCH  14  15
HETATM   15  C   UNL     1      28.396 -13.520 -13.720  1.00  0.00     0.053 C 
BRANCH  15  16
HETATM   16  C   UNL     1      27.757 -14.079 -12.469  1.00  0.00    -0.027 C 
HETATM   17  C   UNL     1      27.748 -13.542 -11.232  1.00  0.00    -0.027 C 
BRANCH  17  18
HETATM   18  C   UNL     1      28.364 -12.237 -10.803  1.00  0.00     0.053 C 
BRANCH  18  19
HETATM   19  C   UNL     1      29.809 -12.433 -10.407  1.00  0.00    -0.027 C 
HETATM   20  C   UNL     1      30.288 -12.783  -9.195  1.00  0.00    -0.027 C 
BRANCH  20  21
HETATM   21  C   UNL     1      29.486 -13.115  -7.961  1.00  0.00     0.053 C 
BRANCH  21  22
HETATM   22  C   UNL     1      29.065 -14.566  -7.967  1.00  0.00    -0.027 C 
HETATM   23  C   UNL     1      29.732 -15.611  -7.439  1.00  0.00    -0.031 C 
BRANCH  23  24
HETATM   24  C   UNL     1      31.064 -15.562  -6.737  1.00  0.00     0.022 C 
HETATM   25  C   UNL     1      32.236 -15.691  -7.701  1.00  0.00     0.009 C 
ENDBRANCH  23  24
ENDBRANCH  21  22
ENDBRANCH  20  21
ENDBRANCH  18  19
ENDBRANCH  17  18
ENDBRANCH  15  16
ENDBRANCH  14  15
ENDBRANCH  12  13
ENDBRANCH  11  12
ENDBRANCH   9  10
ENDBRANCH   8   9
ENDBRANCH   6   7
ENDBRANCH   5   6
ENDBRANCH   3   5
ENDBRANCH   1   3
TORSDOF 15
ENDMDL
MODEL 5
REMARK VINA RESULT:      -5.0     24.422     26.500
REMARK  15 active torsions:
REMARK  status: ('A' for Active; 'I' for Inactive)
REMARK    1  A    between atoms: O_1  and  C_23 
REMARK    2  A    between atoms: C_3  and  C_7 
REMARK    3  A    between atoms: C_3  and  C_8 
REMARK    4  A    between atoms: C_4  and  C_10 
REMARK    5  A    between atoms: C_4  and  C_11 
REMARK    6  A    between atoms: C_5  and  C_12 
REMARK    7  A    between atoms: C_5  and  C_13 
REMARK    8  A    between atoms: C_6  and  C_15 
REMARK    9  A    between atoms: C_6  and  C_16 
REMARK   10  A    between atoms: C_7  and  C_23 
REMARK   11  A    between atoms: C_9  and  C_17 
REMARK   12  A    between atoms: C_9  and  C_18 
REMARK   13  A    between atoms: C_14  and  C_19 
REMARK   14  A    between atoms: C_14  and  C_20 
REMARK   15  A    between atoms: C_21  and  C_22 
ROOT
HETATM    1  O   UNL     1      32.063 -21.055 -14.734  1.00  0.00    -0.776 OA
HETATM    2  H   UNL     1      32.661 -20.831 -14.007  1.00  0.00     0.167 HD
ENDROOT
BRANCH   1   3
HETATM    3  C   UNL     1      30.909 -20.383 -14.930  1.00  0.00     0.139 C 
HETATM    4  O   UNL     1      30.653 -19.912 -16.029  1.00  0.00    -0.650 OA
BRANCH   3   5
HETATM    5  C   UNL     1      29.940 -20.218 -13.794  1.00  0.00     0.113 C 
BRANCH   5   6
HETATM    6  C   UNL     1      30.566 -19.410 -12.652  1.00  0.00     0.037 C 
BRANCH   6   7
HETATM    7  C   UNL     1      30.974 -20.320 -11.518  1.00  0.00    -0.030 C 
HETATM    8  C   UNL     1      30.794 -20.102 -10.198  1.00  0.00    -0.027 C 
BRANCH   8   9
HETATM    9  C   UNL     1      30.144 -18.903  -9.541  1.00  0.00     0.053 C 
BRANCH   9  10
HETATM   10  C   UNL     1      31.169 -18.068  -8.815  1.00  0.00    -0.027 C 
HETATM   11  C   UNL     1      31.494 -16.795  -9.106  1.00  0.00    -0.027 C 
BRANCH  11  12
HETATM   12  C   UNL     1      30.851 -15.951 -10.175  1.00  0.00     0.053 C 
BRANCH  12  13
HETATM   13  C   UNL     1      31.678 -15.959 -11.437  1.00  0.00    -0.027 C 
HETATM   14  C   UNL     1      32.760 -15.200 -11.693  1.00  0.00    -0.027 C 
BRANCH  14  15
HETATM   15  C   UNL     1      33.340 -14.148 -10.785  1.00  0.00     0.053 C 
BRANCH  15  16
HETATM   16  C   UNL     1      33.055 -12.788 -11.383  1.00  0.00    -0.027 C 
HETATM   17  C   UNL     1      32.355 -11.773 -10.838  1.00  0.00    -0.027 C 
BRANCH  17  18
HETATM   18  C   UNL     1      31.699 -11.746  -9.483  1.00  0.00     0.053 C 
BRANCH  18  19
HETATM   19  C   UNL     1      30.233 -12.094  -9.593  1.00  0.00    -0.027 C 
HETATM   20  C   UNL     1      29.476 -12.757  -8.694  1.00  0.00    -0.027 C 
BRANCH  20  21
HETATM   21  C   UNL     1      29.906 -13.261  -7.338  1.00  0.00     0.053 C 
BRANCH  21  22
HETATM   22  C   UNL     1      29.602 -12.242  -6.265  1.00  0.00    -0.027 C 
HETATM   23  C   UNL     1      30.484 -11.618  -5.460  1.00  0.00    -0.031 C 
BRANCH  23  24
HETATM   24  C   UNL     1      31.977 -11.815  -5.441  1.00  0.00     0.022 C 
HETATM   25  C   UNL     1      32.739 -10.525  -5.715  1.00  0.00     0.009 C 
ENDBRANCH  23  24
ENDBRANCH  21  22
ENDBRANCH  20  21
ENDBRANCH  18  19
ENDBRANCH  17  18
ENDBRANCH  15  16
ENDBRANCH  14  15
ENDBRANCH  12  13
ENDBRANCH  11  12
ENDBRANCH   9  10
ENDBRANCH   8   9
ENDBRANCH   6   7
ENDBRANCH   5   6
ENDBRANCH   3   5
ENDBRANCH   1   3
TORSDOF 15
ENDMDL
MODEL 6
REMARK VINA RESULT:      -5.0     25.509     27.547
REMARK  15 active torsions:
REMARK  status: ('A' for Active; 'I' for Inactive)
REMARK    1  A    between atoms: O_1  and  C_23 
REMARK    2  A    between atoms: C_3  and  C_7 
REMARK    3  A    between atoms: C_3  and  C_8 
REMARK    4  A    between atoms: C_4  and  C_10 
REMARK    5  A    between atoms: C_4  and  C_11 
REMARK    6  A    between atoms: C_5  and  C_12 
REMARK    7  A    between atoms: C_5  and  C_13 
REMARK    8  A    between atoms: C_6  and  C_15 
REMARK    9  A    between atoms: C_6  and  C_16 
REMARK   10  A    between atoms: C_7  and  C_23 
REMARK   11  A    between atoms: C_9  and  C_17 
REMARK   12  A    between atoms: C_9  and  C_18 
REMARK   13  A    between atoms: C_14  and  C_19 
REMARK   14  A    between atoms: C_14  and  C_20 
REMARK   15  A    between atoms: C_21  and  C_22 
ROOT
HETATM    1  O   UNL     1      32.464 -20.600 -14.562  1.00  0.00    -0.776 OA
HETATM    2  H   UNL     1      32.977 -21.387 -14.790  1.00  0.00     0.167 HD
ENDROOT
BRANCH   1   3
HETATM    3  C   UNL     1      31.269 -20.346 -15.138  1.00  0.00     0.139 C 
HETATM    4  O   UNL     1      30.953 -20.921 -16.169  1.00  0.00    -0.650 OA
BRANCH   3   5
HETATM    5  C   UNL     1      30.330 -19.360 -14.505  1.00  0.00     0.113 C 
BRANCH   5   6
HETATM    6  C   UNL     1      31.101 -18.175 -13.909  1.00  0.00     0.037 C 
BRANCH   6   7
HETATM    7  C   UNL     1      30.213 -17.371 -12.990  1.00  0.00    -0.030 C 
HETATM    8  C   UNL     1      30.127 -17.477 -11.647  1.00  0.00    -0.027 C 
BRANCH   8   9
HETATM    9  C   UNL     1      30.893 -18.421 -10.746  1.00  0.00     0.053 C 
BRANCH   9  10
HETATM   10  C   UNL     1      29.953 -19.336 -10.004  1.00  0.00    -0.027 C 
HETATM   11  C   UNL     1      29.987 -19.596  -8.684  1.00  0.00    -0.027 C 
BRANCH  11  12
HETATM   12  C   UNL     1      30.937 -18.972  -7.695  1.00  0.00     0.053 C 
BRANCH  12  13
HETATM   13  C   UNL     1      30.206 -18.042  -6.759  1.00  0.00    -0.027 C 
HETATM   14  C   UNL     1      30.359 -16.708  -6.671  1.00  0.00    -0.027 C 
BRANCH  14  15
HETATM   15  C   UNL     1      31.333 -15.873  -7.460  1.00  0.00     0.053 C 
BRANCH  15  16
HETATM   16  C   UNL     1      30.617 -15.314  -8.669  1.00  0.00    -0.027 C 
HETATM   17  C   UNL     1      31.160 -14.748  -9.766  1.00  0.00    -0.027 C 
BRANCH  17  18
HETATM   18  C   UNL     1      32.625 -14.554 -10.058  1.00  0.00     0.053 C 
BRANCH  18  19
HETATM   19  C   UNL     1      32.963 -15.051 -11.444  1.00  0.00    -0.027 C 
HETATM   20  C   UNL     1      32.539 -14.548 -12.622  1.00  0.00    -0.027 C 
BRANCH  20  21
HETATM   21  C   UNL     1      31.669 -13.334 -12.833  1.00  0.00     0.053 C 
BRANCH  21  22
HETATM   22  C   UNL     1      30.455 -13.680 -13.664  1.00  0.00    -0.027 C 
HETATM   23  C   UNL     1      29.163 -13.617 -13.286  1.00  0.00    -0.031 C 
BRANCH  23  24
HETATM   24  C   UNL     1      28.643 -13.202 -11.935  1.00  0.00     0.022 C 
HETATM   25  C   UNL     1      27.771 -14.273 -11.292  1.00  0.00     0.009 C 
ENDBRANCH  23  24
ENDBRANCH  21  22
ENDBRANCH  20  21
ENDBRANCH  18  19
ENDBRANCH  17  18
ENDBRANCH  15  16
ENDBRANCH  14  15
ENDBRANCH  12  13
ENDBRANCH  11  12
ENDBRANCH   9  10
ENDBRANCH   8   9
ENDBRANCH   6   7
ENDBRANCH   5   6
ENDBRANCH   3   5
ENDBRANCH   1   3
TORSDOF 15
ENDMDL
MODEL 7
REMARK VINA RESULT:      -5.0     24.790     26.870
REMARK  15 active torsions:
REMARK  status: ('A' for Active; 'I' for Inactive)
REMARK    1  A    between atoms: O_1  and  C_23 
REMARK    2  A    between atoms: C_3  and  C_7 
REMARK    3  A    between atoms: C_3  and  C_8 
REMARK    4  A    between atoms: C_4  and  C_10 
REMARK    5  A    between atoms: C_4  and  C_11 
REMARK    6  A    between atoms: C_5  and  C_12 
REMARK    7  A    between atoms: C_5  and  C_13 
REMARK    8  A    between atoms: C_6  and  C_15 
REMARK    9  A    between atoms: C_6  and  C_16 
REMARK   10  A    between atoms: C_7  and  C_23 
REMARK   11  A    between atoms: C_9  and  C_17 
REMARK   12  A    between atoms: C_9  and  C_18 
REMARK   13  A    between atoms: C_14  and  C_19 
REMARK   14  A    between atoms: C_14  and  C_20 
REMARK   15  A    between atoms: C_21  and  C_22 
ROOT
HETATM    1  O   UNL     1      32.503 -20.531 -14.729  1.00  0.00    -0.776 OA
HETATM    2  H   UNL     1      32.906 -20.948 -13.955  1.00  0.00     0.167 HD
ENDROOT
BRANCH   1   3
HETATM    3  C   UNL     1      31.181 -20.637 -14.978  1.00  0.00     0.139 C 
HETATM    4  O   UNL     1      30.790 -20.900 -16.107  1.00  0.00    -0.650 OA
BRANCH   3   5
HETATM    5  C   UNL     1      30.193 -20.435 -13.865  1.00  0.00     0.113 C 
BRANCH   5   6
HETATM    6  C   UNL     1      29.616 -19.015 -13.896  1.00  0.00     0.037 C 
BRANCH   6   7
HETATM    7  C   UNL     1      30.698 -17.995 -13.635  1.00  0.00    -0.030 C 
HETATM    8  C   UNL     1      30.926 -17.329 -12.483  1.00  0.00    -0.027 C 
BRANCH   8   9
HETATM    9  C   UNL     1      30.156 -17.444 -11.185  1.00  0.00     0.053 C 
BRANCH   9  10
HETATM   10  C   UNL     1      31.093 -17.446 -10.003  1.00  0.00    -0.027 C 
HETATM   11  C   UNL     1      31.389 -16.383  -9.234  1.00  0.00    -0.027 C 
BRANCH  11  12
HETATM   12  C   UNL     1      30.793 -15.007  -9.378  1.00  0.00     0.053 C 
BRANCH  12  13
HETATM   13  C   UNL     1      29.537 -14.875  -8.552  1.00  0.00    -0.027 C 
HETATM   14  C   UNL     1      28.520 -14.021  -8.769  1.00  0.00    -0.027 C 
BRANCH  14  15
HETATM   15  C   UNL     1      28.449 -12.983  -9.857  1.00  0.00     0.053 C 
BRANCH  15  16
HETATM   16  C   UNL     1      27.364 -13.383 -10.832  1.00  0.00    -0.027 C 
HETATM   17  C   UNL     1      27.510 -13.941 -12.051  1.00  0.00    -0.027 C 
BRANCH  17  18
HETATM   18  C   UNL     1      28.800 -14.321 -12.729  1.00  0.00     0.053 C 
BRANCH  18  19
HETATM   19  C   UNL     1      29.415 -13.123 -13.415  1.00  0.00    -0.027 C 
HETATM   20  C   UNL     1      30.625 -12.576 -13.182  1.00  0.00    -0.027 C 
BRANCH  20  21
HETATM   21  C   UNL     1      31.676 -13.068 -12.217  1.00  0.00     0.053 C 
BRANCH  21  22
HETATM   22  C   UNL     1      32.523 -14.148 -12.849  1.00  0.00    -0.027 C 
HETATM   23  C   UNL     1      33.572 -14.788 -12.297  1.00  0.00    -0.031 C 
BRANCH  23  24
HETATM   24  C   UNL     1      34.147 -14.552 -10.925  1.00  0.00     0.022 C 
HETATM   25  C   UNL     1      35.532 -13.921 -10.974  1.00  0.00     0.009 C 
ENDBRANCH  23  24
ENDBRANCH  21  22
ENDBRANCH  20  21
ENDBRANCH  18  19
ENDBRANCH  17  18
ENDBRANCH  15  16
ENDBRANCH  14  15
ENDBRANCH  12  13
ENDBRANCH  11  12
ENDBRANCH   9  10
ENDBRANCH   8   9
ENDBRANCH   6   7
ENDBRANCH   5   6
ENDBRANCH   3   5
ENDBRANCH   1   3
TORSDOF 15
ENDMDL
MODEL 8
REMARK VINA RESULT:      -5.0      3.422      9.633
REMARK  15 active torsions:
REMARK  status: ('A' for Active; 'I' for Inactive)
REMARK    1  A    between atoms: O_1  and  C_23 
REMARK    2  A    between atoms: C_3  and  C_7 
REMARK    3  A    between atoms: C_3  and  C_8 
REMARK    4  A    between atoms: C_4  and  C_10 
REMARK    5  A    between atoms: C_4  and  C_11 
REMARK    6  A    between atoms: C_5  and  C_12 
REMARK    7  A    between atoms: C_5  and  C_13 
REMARK    8  A    between atoms: C_6  and  C_15 
REMARK    9  A    between atoms: C_6  and  C_16 
REMARK   10  A    between atoms: C_7  and  C_23 
REMARK   11  A    between atoms: C_9  and  C_17 
REMARK   12  A    between atoms: C_9  and  C_18 
REMARK   13  A    between atoms: C_14  and  C_19 
REMARK   14  A    between atoms: C_14  and  C_20 
REMARK   15  A    between atoms: C_21  and  C_22 
ROOT
HETATM    1  O   UNL     1      41.167  12.829  -9.438  1.00  0.00    -0.776 OA
HETATM    2  H   UNL     1      40.391  12.581  -8.917  1.00  0.00     0.167 HD
ENDROOT
BRANCH   1   3
HETATM    3  C   UNL     1      42.224  11.998  -9.565  1.00  0.00     0.139 C 
HETATM    4  O   UNL     1      43.000  12.134 -10.500  1.00  0.00    -0.650 OA
BRANCH   3   5
HETATM    5  C   UNL     1      42.444  10.911  -8.552  1.00  0.00     0.113 C 
BRANCH   5   6
HETATM    6  C   UNL     1      41.589   9.680  -8.876  1.00  0.00     0.037 C 
BRANCH   6   7
HETATM    7  C   UNL     1      40.845   9.211  -7.649  1.00  0.00    -0.030 C 
HETATM    8  C   UNL     1      39.878   8.270  -7.596  1.00  0.00    -0.027 C 
BRANCH   8   9
HETATM    9  C   UNL     1      39.311   7.466  -8.746  1.00  0.00     0.053 C 
BRANCH   9  10
HETATM   10  C   UNL     1      38.176   8.204  -9.409  1.00  0.00    -0.027 C 
HETATM   11  C   UNL     1      38.207   8.754 -10.636  1.00  0.00    -0.027 C 
BRANCH  11  12
HETATM   12  C   UNL     1      39.365   8.683 -11.597  1.00  0.00     0.053 C 
BRANCH  12  13
HETATM   13  C   UNL     1      39.321   7.405 -12.398  1.00  0.00    -0.027 C 
HETATM   14  C   UNL     1      39.727   7.241 -13.671  1.00  0.00    -0.027 C 
BRANCH  14  15
HETATM   15  C   UNL     1      40.266   8.317 -14.576  1.00  0.00     0.053 C 
BRANCH  15  16
HETATM   16  C   UNL     1      39.113   8.912 -15.353  1.00  0.00    -0.027 C 
HETATM   17  C   UNL     1      38.666   8.557 -16.575  1.00  0.00    -0.027 C 
BRANCH  17  18
HETATM   18  C   UNL     1      39.203   7.460 -17.456  1.00  0.00     0.053 C 
BRANCH  18  19
HETATM   19  C   UNL     1      40.317   7.978 -18.335  1.00  0.00    -0.027 C 
HETATM   20  C   UNL     1      40.450   7.826 -19.668  1.00  0.00    -0.027 C 
BRANCH  20  21
HETATM   21  C   UNL     1      39.483   7.146 -20.607  1.00  0.00     0.053 C 
BRANCH  21  22
HETATM   22  C   UNL     1      39.049   8.087 -21.706  1.00  0.00    -0.027 C 
HETATM   23  C   UNL     1      38.011   8.945 -21.681  1.00  0.00    -0.031 C 
BRANCH  23  24
HETATM   24  C   UNL     1      37.037   9.143 -20.549  1.00  0.00     0.022 C 
HETATM   25  C   UNL     1      37.502  10.202 -19.558  1.00  0.00     0.009 C 
ENDBRANCH  23  24
ENDBRANCH  21  22
ENDBRANCH  20  21
ENDBRANCH  18  19
ENDBRANCH  17  18
ENDBRANCH  15  16
ENDBRANCH  14  15
ENDBRANCH  12  13
ENDBRANCH  11  12
ENDBRANCH   9  10
ENDBRANCH   8   9
ENDBRANCH   6   7
ENDBRANCH   5   6
ENDBRANCH   3   5
ENDBRANCH   1   3
TORSDOF 15
ENDMDL
MODEL 9
REMARK VINA RESULT:      -5.0      4.052      8.630
REMARK  15 active torsions:
REMARK  status: ('A' for Active; 'I' for Inactive)
REMARK    1  A    between atoms: O_1  and  C_23 
REMARK    2  A    between atoms: C_3  and  C_7 
REMARK    3  A    between atoms: C_3  and  C_8 
REMARK    4  A    between atoms: C_4  and  C_10 
REMARK    5  A    between atoms: C_4  and  C_11 
REMARK    6  A    between atoms: C_5  and  C_12 
REMARK    7  A    between atoms: C_5  and  C_13 
REMARK    8  A    between atoms: C_6  and  C_15 
REMARK    9  A    between atoms: C_6  and  C_16 
REMARK   10  A    between atoms: C_7  and  C_23 
REMARK   11  A    between atoms: C_9  and  C_17 
REMARK   12  A    between atoms: C_9  and  C_18 
REMARK   13  A    between atoms: C_14  and  C_19 
REMARK   14  A    between atoms: C_14  and  C_20 
REMARK   15  A    between atoms: C_21  and  C_22 
ROOT
HETATM    1  O   UNL     1      37.728   8.499 -24.415  1.00  0.00    -0.776 OA
HETATM    2  H   UNL     1      37.834   8.317 -25.359  1.00  0.00     0.167 HD
ENDROOT
BRANCH   1   3
HETATM    3  C   UNL     1      38.774   8.875 -23.649  1.00  0.00     0.139 C 
HETATM    4  O   UNL     1      39.706   8.106 -23.463  1.00  0.00    -0.650 OA
BRANCH   3   5
HETATM    5  C   UNL     1      38.790  10.244 -23.029  1.00  0.00     0.113 C 
BRANCH   5   6
HETATM    6  C   UNL     1      38.926  10.153 -21.505  1.00  0.00     0.037 C 
BRANCH   6   7
HETATM    7  C   UNL     1      37.672   9.576 -20.892  1.00  0.00    -0.030 C 
HETATM    8  C   UNL     1      37.517   8.340 -20.371  1.00  0.00    -0.027 C 
BRANCH   8   9
HETATM    9  C   UNL     1      38.555   7.243 -20.277  1.00  0.00     0.053 C 
BRANCH   9  10
HETATM   10  C   UNL     1      39.186   7.217 -18.907  1.00  0.00    -0.027 C 
HETATM   11  C   UNL     1      40.305   7.869 -18.546  1.00  0.00    -0.027 C 
BRANCH  11  12
HETATM   12  C   UNL     1      41.102   8.793 -19.429  1.00  0.00     0.053 C 
BRANCH  12  13
HETATM   13  C   UNL     1      41.874   9.793 -18.604  1.00  0.00    -0.027 C 
HETATM   14  C   UNL     1      41.408  10.955 -18.108  1.00  0.00    -0.027 C 
BRANCH  14  15
HETATM   15  C   UNL     1      40.028  11.519 -18.319  1.00  0.00     0.053 C 
BRANCH  15  16
HETATM   16  C   UNL     1      39.386  11.735 -16.966  1.00  0.00    -0.027 C 
HETATM   17  C   UNL     1      38.412  11.004 -16.386  1.00  0.00    -0.027 C 
BRANCH  17  18
HETATM   18  C   UNL     1      37.741   9.777 -16.943  1.00  0.00     0.053 C 
BRANCH  18  19
HETATM   19  C   UNL     1      37.177   8.925 -15.830  1.00  0.00    -0.027 C 
HETATM   20  C   UNL     1      37.809   7.954 -15.138  1.00  0.00    -0.027 C 
BRANCH  20  21
HETATM   21  C   UNL     1      39.249   7.528 -15.278  1.00  0.00     0.053 C 
BRANCH  21  22
HETATM   22  C   UNL     1      40.135   8.309 -14.336  1.00  0.00    -0.027 C 
HETATM   23  C   UNL     1      40.198   8.196 -12.995  1.00  0.00    -0.031 C 
BRANCH  23  24
HETATM   24  C   UNL     1      39.378   7.273 -12.133  1.00  0.00     0.022 C 
HETATM   25  C   UNL     1      39.721   7.399 -10.654  1.00  0.00     0.009 C 
ENDBRANCH  23  24
ENDBRANCH  21  22
ENDBRANCH  20  21
ENDBRANCH  18  19
ENDBRANCH  17  18
ENDBRANCH  15  16
ENDBRANCH  14  15
ENDBRANCH  12  13
ENDBRANCH  11  12
ENDBRANCH   9  10
ENDBRANCH   8   9
ENDBRANCH   6   7
ENDBRANCH   5   6
ENDBRANCH   3   5
ENDBRANCH   1   3
TORSDOF 15
ENDMDL
MODEL 10
REMARK VINA RESULT:      -5.0     25.334     27.406
REMARK  15 active torsions:
REMARK  status: ('A' for Active; 'I' for Inactive)
REMARK    1  A    between atoms: O_1  and  C_23 
REMARK    2  A    between atoms: C_3  and  C_7 
REMARK    3  A    between atoms: C_3  and  C_8 
REMARK    4  A    between atoms: C_4  and  C_10 
REMARK    5  A    between atoms: C_4  and  C_11 
REMARK    6  A    between atoms: C_5  and  C_12 
REMARK    7  A    between atoms: C_5  and  C_13 
REMARK    8  A    between atoms: C_6  and  C_15 
REMARK    9  A    between atoms: C_6  and  C_16 
REMARK   10  A    between atoms: C_7  and  C_23 
REMARK   11  A    between atoms: C_9  and  C_17 
REMARK   12  A    between atoms: C_9  and  C_18 
REMARK   13  A    between atoms: C_14  and  C_19 
REMARK   14  A    between atoms: C_14  and  C_20 
REMARK   15  A    between atoms: C_21  and  C_22 
ROOT
HETATM    1  O   UNL     1      32.775 -20.293 -14.167  1.00  0.00    -0.776 OA
HETATM    2  H   UNL     1      33.257 -19.482 -14.382  1.00  0.00     0.167 HD
ENDROOT
BRANCH   1   3
HETATM    3  C   UNL     1      31.529 -20.517 -14.637  1.00  0.00     0.139 C 
HETATM    4  O   UNL     1      31.360 -20.807 -15.812  1.00  0.00    -0.650 OA
BRANCH   3   5
HETATM    5  C   UNL     1      30.353 -20.411 -13.709  1.00  0.00     0.113 C 
BRANCH   5   6
HETATM    6  C   UNL     1      29.767 -18.995 -13.726  1.00  0.00     0.037 C 
BRANCH   6   7
HETATM    7  C   UNL     1      30.339 -18.168 -12.600  1.00  0.00    -0.030 C 
HETATM    8  C   UNL     1      31.074 -17.041 -12.712  1.00  0.00    -0.027 C 
BRANCH   8   9
HETATM    9  C   UNL     1      31.499 -16.340 -13.984  1.00  0.00     0.053 C 
BRANCH   9  10
HETATM   10  C   UNL     1      32.065 -14.976 -13.682  1.00  0.00    -0.027 C 
HETATM   11  C   UNL     1      31.353 -13.889 -13.334  1.00  0.00    -0.027 C 
BRANCH  11  12
HETATM   12  C   UNL     1      29.861 -13.852 -13.126  1.00  0.00     0.053 C 
BRANCH  12  13
HETATM   13  C   UNL     1      29.407 -12.468 -12.734  1.00  0.00    -0.027 C 
HETATM   14  C   UNL     1      29.081 -12.050 -11.497  1.00  0.00    -0.027 C 
BRANCH  14  15
HETATM   15  C   UNL     1      29.057 -12.897 -10.252  1.00  0.00     0.053 C 
BRANCH  15  16
HETATM   16  C   UNL     1      30.316 -12.622  -9.459  1.00  0.00    -0.027 C 
HETATM   17  C   UNL     1      31.392 -13.420  -9.311  1.00  0.00    -0.027 C 
BRANCH  17  18
HETATM   18  C   UNL     1      31.607 -14.781  -9.921  1.00  0.00     0.053 C 
BRANCH  18  19
HETATM   19  C   UNL     1      32.451 -15.645  -9.014  1.00  0.00    -0.027 C 
HETATM   20  C   UNL     1      32.026 -16.456  -8.024  1.00  0.00    -0.027 C 
BRANCH  20  21
HETATM   21  C   UNL     1      30.598 -16.735  -7.626  1.00  0.00     0.053 C 
BRANCH  21  22
HETATM   22  C   UNL     1      29.827 -17.339  -8.776  1.00  0.00    -0.027 C 
HETATM   23  C   UNL     1      29.914 -18.599  -9.243  1.00  0.00    -0.031 C 
BRANCH  23  24
HETATM   24  C   UNL     1      30.822 -19.686  -8.729  1.00  0.00     0.022 C 
HETATM   25  C   UNL     1      31.487 -20.471  -9.852  1.00  0.00     0.009 C 
ENDBRANCH  23  24
ENDBRANCH  21  22
ENDBRANCH  20  21
ENDBRANCH  18  19
ENDBRANCH  17  18
ENDBRANCH  15  16
ENDBRANCH  14  15
ENDBRANCH  12  13
ENDBRANCH  11  12
ENDBRANCH   9  10
ENDBRANCH   8   9
ENDBRANCH   6   7
ENDBRANCH   5   6
ENDBRANCH   3   5
ENDBRANCH   1   3
TORSDOF 15
ENDMDL
MODEL 11
REMARK VINA RESULT:      -5.0     26.217     28.507
REMARK  15 active torsions:
REMARK  status: ('A' for Active; 'I' for Inactive)
REMARK    1  A    between atoms: O_1  and  C_23 
REMARK    2  A    between atoms: C_3  and  C_7 
REMARK    3  A    between atoms: C_3  and  C_8 
REMARK    4  A    between atoms: C_4  and  C_10 
REMARK    5  A    between atoms: C_4  and  C_11 
REMARK    6  A    between atoms: C_5  and  C_12 
REMARK    7  A    between atoms: C_5  and  C_13 
REMARK    8  A    between atoms: C_6  and  C_15 
REMARK    9  A    between atoms: C_6  and  C_16 
REMARK   10  A    between atoms: C_7  and  C_23 
REMARK   11  A    between atoms: C_9  and  C_17 
REMARK   12  A    between atoms: C_9  and  C_18 
REMARK   13  A    between atoms: C_14  and  C_19 
REMARK   14  A    between atoms: C_14  and  C_20 
REMARK   15  A    between atoms: C_21  and  C_22 
ROOT
HETATM    1  O   UNL     1      32.169 -20.186 -13.654  1.00  0.00    -0.776 OA
HETATM    2  H   UNL     1      32.748 -20.779 -13.156  1.00  0.00     0.167 HD
ENDROOT
BRANCH   1   3
HETATM    3  C   UNL     1      30.889 -19.976 -13.280  1.00  0.00     0.139 C 
HETATM    4  O   UNL     1      30.024 -20.791 -13.569  1.00  0.00    -0.650 OA
BRANCH   3   5
HETATM    5  C   UNL     1      30.532 -18.739 -12.505  1.00  0.00     0.113 C 
BRANCH   5   6
HETATM    6  C   UNL     1      30.237 -19.078 -11.039  1.00  0.00     0.037 C 
BRANCH   6   7
HETATM    7  C   UNL     1      31.433 -19.738 -10.395  1.00  0.00    -0.030 C 
HETATM    8  C   UNL     1      31.490 -20.290  -9.164  1.00  0.00    -0.027 C 
BRANCH   8   9
HETATM    9  C   UNL     1      30.378 -20.380  -8.141  1.00  0.00     0.053 C 
BRANCH   9  10
HETATM   10  C   UNL     1      30.825 -19.827  -6.812  1.00  0.00    -0.027 C 
HETATM   11  C   UNL     1      30.705 -18.548  -6.413  1.00  0.00    -0.027 C 
BRANCH  11  12
HETATM   12  C   UNL     1      30.047 -17.445  -7.201  1.00  0.00     0.053 C 
BRANCH  12  13
HETATM   13  C   UNL     1      31.067 -16.674  -8.002  1.00  0.00    -0.027 C 
HETATM   14  C   UNL     1      30.838 -15.967  -9.124  1.00  0.00    -0.027 C 
BRANCH  14  15
HETATM   15  C   UNL     1      29.520 -15.840  -9.840  1.00  0.00     0.053 C 
BRANCH  15  16
HETATM   16  C   UNL     1      28.808 -14.610  -9.321  1.00  0.00    -0.027 C 
HETATM   17  C   UNL     1      28.065 -13.727 -10.019  1.00  0.00    -0.027 C 
BRANCH  17  18
HETATM   18  C   UNL     1      27.749 -13.767 -11.491  1.00  0.00     0.053 C 
BRANCH  18  19
HETATM   19  C   UNL     1      28.921 -13.266 -12.302  1.00  0.00    -0.027 C 
HETATM   20  C   UNL     1      29.596 -13.927 -13.264  1.00  0.00    -0.027 C 
BRANCH  20  21
HETATM   21  C   UNL     1      29.302 -15.308 -13.797  1.00  0.00     0.053 C 
BRANCH  21  22
HETATM   22  C   UNL     1      29.116 -15.278 -15.296  1.00  0.00    -0.027 C 
HETATM   23  C   UNL     1      29.720 -16.063 -16.208  1.00  0.00    -0.031 C 
BRANCH  23  24
HETATM   24  C   UNL     1      30.737 -17.141 -15.932  1.00  0.00     0.022 C 
HETATM   25  C   UNL     1      30.360 -18.474 -16.566  1.00  0.00     0.009 C 
ENDBRANCH  23  24
ENDBRANCH  21  22
ENDBRANCH  20  21
ENDBRANCH  18  19
ENDBRANCH  17  18
ENDBRANCH  15  16
ENDBRANCH  14  15
ENDBRANCH  12  13
ENDBRANCH  11  12
ENDBRANCH   9  10
ENDBRANCH   8   9
ENDBRANCH   6   7
ENDBRANCH   5   6
ENDBRANCH   3   5
ENDBRANCH   1   3
TORSDOF 15
ENDMDL
MODEL 12
REMARK VINA RESULT:      -5.0     24.846     26.895
REMARK  15 active torsions:
REMARK  status: ('A' for Active; 'I' for Inactive)
REMARK    1  A    between atoms: O_1  and  C_23 
REMARK    2  A    between atoms: C_3  and  C_7 
REMARK    3  A    between atoms: C_3  and  C_8 
REMARK    4  A    between atoms: C_4  and  C_10 
REMARK    5  A    between atoms: C_4  and  C_11 
REMARK    6  A    between atoms: C_5  and  C_12 
REMARK    7  A    between atoms: C_5  and  C_13 
REMARK    8  A    between atoms: C_6  and  C_15 
REMARK    9  A    between atoms: C_6  and  C_16 
REMARK   10  A    between atoms: C_7  and  C_23 
REMARK   11  A    between atoms: C_9  and  C_17 
REMARK   12  A    between atoms: C_9  and  C_18 
REMARK   13  A    between atoms: C_14  and  C_19 
REMARK   14  A    between atoms: C_14  and  C_20 
REMARK   15  A    between atoms: C_21  and  C_22 
ROOT
HETATM    1  O   UNL     1      32.057 -20.678 -15.438  1.00  0.00    -0.776 OA
HETATM    2  H   UNL     1      32.841 -20.620 -14.874  1.00  0.00     0.167 HD
ENDROOT
BRANCH   1   3
HETATM    3  C   UNL     1      30.917 -20.023 -15.128  1.00  0.00     0.139 C 
HETATM    4  O   UNL     1      30.505 -19.134 -15.858  1.00  0.00    -0.650 OA
BRANCH   3   5
HETATM    5  C   UNL     1      30.158 -20.394 -13.886  1.00  0.00     0.113 C 
BRANCH   5   6
HETATM    6  C   UNL     1      30.498 -19.444 -12.732  1.00  0.00     0.037 C 
BRANCH   6   7
HETATM    7  C   UNL     1      30.921 -20.223 -11.509  1.00  0.00    -0.030 C 
HETATM    8  C   UNL     1      30.764 -19.857 -10.220  1.00  0.00    -0.027 C 
BRANCH   8   9
HETATM    9  C   UNL     1      30.130 -18.587  -9.692  1.00  0.00     0.053 C 
BRANCH   9  10
HETATM   10  C   UNL     1      30.072 -18.602  -8.186  1.00  0.00    -0.027 C 
HETATM   11  C   UNL     1      30.252 -17.538  -7.382  1.00  0.00    -0.027 C 
BRANCH  11  12
HETATM   12  C   UNL     1      30.488 -16.124  -7.844  1.00  0.00     0.053 C 
BRANCH  12  13
HETATM   13  C   UNL     1      29.399 -15.206  -7.346  1.00  0.00    -0.027 C 
HETATM   14  C   UNL     1      28.553 -14.481  -8.100  1.00  0.00    -0.027 C 
BRANCH  14  15
HETATM   15  C   UNL     1      28.552 -14.401  -9.604  1.00  0.00     0.053 C 
BRANCH  15  16
HETATM   16  C   UNL     1      28.452 -12.946 -10.007  1.00  0.00    -0.027 C 
HETATM   17  C   UNL     1      29.428 -12.016 -10.000  1.00  0.00    -0.027 C 
BRANCH  17  18
HETATM   18  C   UNL     1      30.868 -12.211  -9.603  1.00  0.00     0.053 C 
BRANCH  18  19
HETATM   19  C   UNL     1      31.731 -11.107 -10.168  1.00  0.00    -0.027 C 
HETATM   20  C   UNL     1      32.629 -11.199 -11.170  1.00  0.00    -0.027 C 
BRANCH  20  21
HETATM   21  C   UNL     1      32.942 -12.417 -12.002  1.00  0.00     0.053 C 
BRANCH  21  22
HETATM   22  C   UNL     1      31.867 -12.654 -13.037  1.00  0.00    -0.027 C 
HETATM   23  C   UNL     1      31.015 -13.695 -13.104  1.00  0.00    -0.031 C 
BRANCH  23  24
HETATM   24  C   UNL     1      30.960 -14.871 -12.164  1.00  0.00     0.022 C 
HETATM   25  C   UNL     1      32.098 -15.856 -12.395  1.00  0.00     0.009 C 
ENDBRANCH  23  24
ENDBRANCH  21  22
ENDBRANCH  20  21
ENDBRANCH  18  19
ENDBRANCH  17  18
ENDBRANCH  15  16
ENDBRANCH  14  15
ENDBRANCH  12  13
ENDBRANCH  11  12
ENDBRANCH   9  10
ENDBRANCH   8   9
ENDBRANCH   6   7
ENDBRANCH   5   6
ENDBRANCH   3   5
ENDBRANCH   1   3
TORSDOF 15
ENDMDL
MODEL 13
REMARK VINA RESULT:      -5.0     24.245     26.834
REMARK  15 active torsions:
REMARK  status: ('A' for Active; 'I' for Inactive)
REMARK    1  A    between atoms: O_1  and  C_23 
REMARK    2  A    between atoms: C_3  and  C_7 
REMARK    3  A    between atoms: C_3  and  C_8 
REMARK    4  A    between atoms: C_4  and  C_10 
REMARK    5  A    between atoms: C_4  and  C_11 
REMARK    6  A    between atoms: C_5  and  C_12 
REMARK    7  A    between atoms: C_5  and  C_13 
REMARK    8  A    between atoms: C_6  and  C_15 
REMARK    9  A    between atoms: C_6  and  C_16 
REMARK   10  A    between atoms: C_7  and  C_23 
REMARK   11  A    between atoms: C_9  and  C_17 
REMARK   12  A    between atoms: C_9  and  C_18 
REMARK   13  A    between atoms: C_14  and  C_19 
REMARK   14  A    between atoms: C_14  and  C_20 
REMARK   15  A    between atoms: C_21  and  C_22 
ROOT
HETATM    1  O   UNL     1      32.414 -20.348  -4.088  1.00  0.00    -0.776 OA
HETATM    2  H   UNL     1      32.477 -20.888  -4.887  1.00  0.00     0.167 HD
ENDROOT
BRANCH   1   3
HETATM    3  C   UNL     1      31.231 -20.140  -3.471  1.00  0.00     0.139 C 
HETATM    4  O   UNL     1      31.056 -20.544  -2.330  1.00  0.00    -0.650 OA
BRANCH   3   5
HETATM    5  C   UNL     1      30.133 -19.408  -4.189  1.00  0.00     0.113 C 
BRANCH   5   6
HETATM    6  C   UNL     1      30.709 -18.454  -5.241  1.00  0.00     0.037 C 
BRANCH   6   7
HETATM    7  C   UNL     1      30.450 -18.978  -6.634  1.00  0.00    -0.030 C 
HETATM    8  C   UNL     1      30.271 -18.248  -7.755  1.00  0.00    -0.027 C 
BRANCH   8   9
HETATM    9  C   UNL     1      30.286 -16.740  -7.886  1.00  0.00     0.053 C 
BRANCH   9  10
HETATM   10  C   UNL     1      31.634 -16.256  -8.358  1.00  0.00    -0.027 C 
HETATM   11  C   UNL     1      32.536 -15.594  -7.612  1.00  0.00    -0.027 C 
BRANCH  11  12
HETATM   12  C   UNL     1      32.388 -15.265  -6.150  1.00  0.00     0.053 C 
BRANCH  12  13
HETATM   13  C   UNL     1      33.562 -14.453  -5.659  1.00  0.00    -0.027 C 
HETATM   14  C   UNL     1      33.623 -13.113  -5.555  1.00  0.00    -0.027 C 
BRANCH  14  15
HETATM   15  C   UNL     1      32.545 -12.141  -5.956  1.00  0.00     0.053 C 
BRANCH  15  16
HETATM   16  C   UNL     1      33.111 -11.197  -6.993  1.00  0.00    -0.027 C 
HETATM   17  C   UNL     1      33.049 -11.306  -8.336  1.00  0.00    -0.027 C 
BRANCH  17  18
HETATM   18  C   UNL     1      32.379 -12.397  -9.129  1.00  0.00     0.053 C 
BRANCH  18  19
HETATM   19  C   UNL     1      30.989 -11.977  -9.545  1.00  0.00    -0.027 C 
HETATM   20  C   UNL     1      29.819 -12.325  -8.969  1.00  0.00    -0.027 C 
BRANCH  20  21
HETATM   21  C   UNL     1      29.629 -13.174  -7.737  1.00  0.00     0.053 C 
BRANCH  21  22
HETATM   22  C   UNL     1      28.921 -12.397  -6.652  1.00  0.00    -0.027 C 
HETATM   23  C   UNL     1      28.879 -12.687  -5.337  1.00  0.00    -0.031 C 
BRANCH  23  24
HETATM   24  C   UNL     1      29.517 -13.871  -4.658  1.00  0.00     0.022 C 
HETATM   25  C   UNL     1      28.709 -15.150  -4.835  1.00  0.00     0.009 C 
ENDBRANCH  23  24
ENDBRANCH  21  22
ENDBRANCH  20  21
ENDBRANCH  18  19
ENDBRANCH  17  18
ENDBRANCH  15  16
ENDBRANCH  14  15
ENDBRANCH  12  13
ENDBRANCH  11  12
ENDBRANCH   9  10
ENDBRANCH   8   9
ENDBRANCH   6   7
ENDBRANCH   5   6
ENDBRANCH   3   5
ENDBRANCH   1   3
TORSDOF 15
ENDMDL
MODEL 14
REMARK VINA RESULT:      -4.9     24.070     26.679
REMARK  15 active torsions:
REMARK  status: ('A' for Active; 'I' for Inactive)
REMARK    1  A    between atoms: O_1  and  C_23 
REMARK    2  A    between atoms: C_3  and  C_7 
REMARK    3  A    between atoms: C_3  and  C_8 
REMARK    4  A    between atoms: C_4  and  C_10 
REMARK    5  A    between atoms: C_4  and  C_11 
REMARK    6  A    between atoms: C_5  and  C_12 
REMARK    7  A    between atoms: C_5  and  C_13 
REMARK    8  A    between atoms: C_6  and  C_15 
REMARK    9  A    between atoms: C_6  and  C_16 
REMARK   10  A    between atoms: C_7  and  C_23 
REMARK   11  A    between atoms: C_9  and  C_17 
REMARK   12  A    between atoms: C_9  and  C_18 
REMARK   13  A    between atoms: C_14  and  C_19 
REMARK   14  A    between atoms: C_14  and  C_20 
REMARK   15  A    between atoms: C_21  and  C_22 
ROOT
HETATM    1  O   UNL     1      31.773 -21.084 -14.994  1.00  0.00    -0.776 OA
HETATM    2  H   UNL     1      31.326 -21.598 -14.308  1.00  0.00     0.167 HD
ENDROOT
BRANCH   1   3
HETATM    3  C   UNL     1      31.080 -20.320 -15.866  1.00  0.00     0.139 C 
HETATM    4  O   UNL     1      30.704 -20.793 -16.929  1.00  0.00    -0.650 OA
BRANCH   3   5
HETATM    5  C   UNL     1      30.770 -18.891 -15.523  1.00  0.00     0.113 C 
BRANCH   5   6
HETATM    6  C   UNL     1      29.958 -18.804 -14.225  1.00  0.00     0.037 C 
BRANCH   6   7
HETATM    7  C   UNL     1      30.654 -17.916 -13.221  1.00  0.00    -0.030 C 
HETATM    8  C   UNL     1      30.412 -16.608 -12.988  1.00  0.00    -0.027 C 
BRANCH   8   9
HETATM    9  C   UNL     1      29.392 -15.724 -13.673  1.00  0.00     0.053 C 
BRANCH   9  10
HETATM   10  C   UNL     1      28.897 -14.651 -12.736  1.00  0.00    -0.027 C 
HETATM   11  C   UNL     1      29.205 -13.343 -12.807  1.00  0.00    -0.027 C 
BRANCH  11  12
HETATM   12  C   UNL     1      30.056 -12.702 -13.872  1.00  0.00     0.053 C 
BRANCH  12  13
HETATM   13  C   UNL     1      31.435 -12.391 -13.345  1.00  0.00    -0.027 C 
HETATM   14  C   UNL     1      32.351 -11.589 -13.918  1.00  0.00    -0.027 C 
BRANCH  14  15
HETATM   15  C   UNL     1      32.205 -10.874 -15.235  1.00  0.00     0.053 C 
BRANCH  15  16
HETATM   16  C   UNL     1      33.482 -11.055 -16.025  1.00  0.00    -0.027 C 
HETATM   17  C   UNL     1      33.742 -11.968 -16.982  1.00  0.00    -0.027 C 
BRANCH  17  18
HETATM   18  C   UNL     1      32.807 -13.024 -17.510  1.00  0.00     0.053 C 
BRANCH  18  19
HETATM   19  C   UNL     1      32.660 -14.152 -16.515  1.00  0.00    -0.027 C 
HETATM   20  C   UNL     1      31.693 -15.091 -16.476  1.00  0.00    -0.027 C 
BRANCH  20  21
HETATM   21  C   UNL     1      30.558 -15.270 -17.454  1.00  0.00     0.053 C 
BRANCH  21  22
HETATM   22  C   UNL     1      29.300 -14.607 -16.944  1.00  0.00    -0.027 C 
HETATM   23  C   UNL     1      28.823 -13.393 -17.283  1.00  0.00    -0.031 C 
BRANCH  23  24
HETATM   24  C   UNL     1      29.457 -12.415 -18.238  1.00  0.00     0.022 C 
HETATM   25  C   UNL     1      28.951 -12.582 -19.665  1.00  0.00     0.009 C 
ENDBRANCH  23  24
ENDBRANCH  21  22
ENDBRANCH  20  21
ENDBRANCH  18  19
ENDBRANCH  17  18
ENDBRANCH  15  16
ENDBRANCH  14  15
ENDBRANCH  12  13
ENDBRANCH  11  12
ENDBRANCH   9  10
ENDBRANCH   8   9
ENDBRANCH   6   7
ENDBRANCH   5   6
ENDBRANCH   3   5
ENDBRANCH   1   3
TORSDOF 15
ENDMDL
MODEL 15
REMARK VINA RESULT:      -4.9      2.220      3.983
REMARK  15 active torsions:
REMARK  status: ('A' for Active; 'I' for Inactive)
REMARK    1  A    between atoms: O_1  and  C_23 
REMARK    2  A    between atoms: C_3  and  C_7 
REMARK    3  A    between atoms: C_3  and  C_8 
REMARK    4  A    between atoms: C_4  and  C_10 
REMARK    5  A    between atoms: C_4  and  C_11 
REMARK    6  A    between atoms: C_5  and  C_12 
REMARK    7  A    between atoms: C_5  and  C_13 
REMARK    8  A    between atoms: C_6  and  C_15 
REMARK    9  A    between atoms: C_6  and  C_16 
REMARK   10  A    between atoms: C_7  and  C_23 
REMARK   11  A    between atoms: C_9  and  C_17 
REMARK   12  A    between atoms: C_9  and  C_18 
REMARK   13  A    between atoms: C_14  and  C_19 
REMARK   14  A    between atoms: C_14  and  C_20 
REMARK   15  A    between atoms: C_21  and  C_22 
ROOT
HETATM    1  O   UNL     1      42.501  11.904 -15.240  1.00  0.00    -0.776 OA
HETATM    2  H   UNL     1      42.690  12.355 -16.074  1.00  0.00     0.167 HD
ENDROOT
BRANCH   1   3
HETATM    3  C   UNL     1      41.749  10.784 -15.199  1.00  0.00     0.139 C 
HETATM    4  O   UNL     1      41.179  10.392 -16.208  1.00  0.00    -0.650 OA
BRANCH   3   5
HETATM    5  C   UNL     1      41.620  10.018 -13.914  1.00  0.00     0.113 C 
BRANCH   5   6
HETATM    6  C   UNL     1      40.541  10.635 -13.016  1.00  0.00     0.037 C 
BRANCH   6   7
HETATM    7  C   UNL     1      39.163  10.268 -13.510  1.00  0.00    -0.030 C 
HETATM    8  C   UNL     1      38.052  10.091 -12.763  1.00  0.00    -0.027 C 
BRANCH   8   9
HETATM    9  C   UNL     1      37.923  10.219 -11.260  1.00  0.00     0.053 C 
BRANCH   9  10
HETATM   10  C   UNL     1      37.403   8.939 -10.656  1.00  0.00    -0.027 C 
HETATM   11  C   UNL     1      38.126   7.827 -10.430  1.00  0.00    -0.027 C 
BRANCH  11  12
HETATM   12  C   UNL     1      39.603   7.677 -10.687  1.00  0.00     0.053 C 
BRANCH  12  13
HETATM   13  C   UNL     1      40.366   7.571  -9.391  1.00  0.00    -0.027 C 
HETATM   14  C   UNL     1      40.902   8.588  -8.689  1.00  0.00    -0.027 C 
BRANCH  14  15
HETATM   15  C   UNL     1      40.889  10.041  -9.083  1.00  0.00     0.053 C 
BRANCH  15  16
HETATM   16  C   UNL     1      42.008  10.747  -8.350  1.00  0.00    -0.027 C 
HETATM   17  C   UNL     1      42.020  11.175  -7.071  1.00  0.00    -0.027 C 
BRANCH  17  18
HETATM   18  C   UNL     1      40.919  11.033  -6.054  1.00  0.00     0.053 C 
BRANCH  18  19
HETATM   19  C   UNL     1      41.420  10.316  -4.822  1.00  0.00    -0.027 C 
HETATM   20  C   UNL     1      41.118   9.065  -4.419  1.00  0.00    -0.027 C 
BRANCH  20  21
HETATM   21  C   UNL     1      40.247   8.064  -5.137  1.00  0.00     0.053 C 
BRANCH  21  22
HETATM   22  C   UNL     1      38.801   8.214  -4.724  1.00  0.00    -0.027 C 
HETATM   23  C   UNL     1      37.768   8.600  -5.497  1.00  0.00    -0.031 C 
BRANCH  23  24
HETATM   24  C   UNL     1      37.832   8.988  -6.951  1.00  0.00     0.022 C 
HETATM   25  C   UNL     1      37.511  10.459  -7.177  1.00  0.00     0.009 C 
ENDBRANCH  23  24
ENDBRANCH  21  22
ENDBRANCH  20  21
ENDBRANCH  18  19
ENDBRANCH  17  18
ENDBRANCH  15  16
ENDBRANCH  14  15
ENDBRANCH  12  13
ENDBRANCH  11  12
ENDBRANCH   9  10
ENDBRANCH   8   9
ENDBRANCH   6   7
ENDBRANCH   5   6
ENDBRANCH   3   5
ENDBRANCH   1   3
TORSDOF 15
ENDMDL
MODEL 16
REMARK VINA RESULT:      -4.9      2.424      4.557
REMARK  15 active torsions:
REMARK  status: ('A' for Active; 'I' for Inactive)
REMARK    1  A    between atoms: O_1  and  C_23 
REMARK    2  A    between atoms: C_3  and  C_7 
REMARK    3  A    between atoms: C_3  and  C_8 
REMARK    4  A    between atoms: C_4  and  C_10 
REMARK    5  A    between atoms: C_4  and  C_11 
REMARK    6  A    between atoms: C_5  and  C_12 
REMARK    7  A    between atoms: C_5  and  C_13 
REMARK    8  A    between atoms: C_6  and  C_15 
REMARK    9  A    between atoms: C_6  and  C_16 
REMARK   10  A    between atoms: C_7  and  C_23 
REMARK   11  A    between atoms: C_9  and  C_17 
REMARK   12  A    between atoms: C_9  and  C_18 
REMARK   13  A    between atoms: C_14  and  C_19 
REMARK   14  A    between atoms: C_14  and  C_20 
REMARK   15  A    between atoms: C_21  and  C_22 
ROOT
HETATM    1  O   UNL     1      40.722  12.378 -16.896  1.00  0.00    -0.776 OA
HETATM    2  H   UNL     1      40.732  12.990 -17.645  1.00  0.00     0.167 HD
ENDROOT
BRANCH   1   3
HETATM    3  C   UNL     1      41.659  11.416 -16.761  1.00  0.00     0.139 C 
HETATM    4  O   UNL     1      42.813  11.718 -16.495  1.00  0.00    -0.650 OA
BRANCH   3   5
HETATM    5  C   UNL     1      41.277   9.973 -16.935  1.00  0.00     0.113 C 
BRANCH   5   6
HETATM    6  C   UNL     1      39.766   9.829 -17.149  1.00  0.00     0.037 C 
BRANCH   6   7
HETATM    7  C   UNL     1      39.398   8.385 -17.393  1.00  0.00    -0.030 C 
HETATM    8  C   UNL     1      38.833   7.532 -16.513  1.00  0.00    -0.027 C 
BRANCH   8   9
HETATM    9  C   UNL     1      38.435   7.815 -15.080  1.00  0.00     0.053 C 
BRANCH   9  10
HETATM   10  C   UNL     1      39.517   7.377 -14.126  1.00  0.00    -0.027 C 
HETATM   11  C   UNL     1      40.345   8.193 -13.449  1.00  0.00    -0.027 C 
BRANCH  11  12
HETATM   12  C   UNL     1      40.304   9.698 -13.477  1.00  0.00     0.053 C 
BRANCH  12  13
HETATM   13  C   UNL     1      41.626  10.281 -13.043  1.00  0.00    -0.027 C 
HETATM   14  C   UNL     1      41.835  11.116 -12.008  1.00  0.00    -0.027 C 
BRANCH  14  15
HETATM   15  C   UNL     1      40.778  11.680 -11.097  1.00  0.00     0.053 C 
BRANCH  15  16
HETATM   16  C   UNL     1      41.462  12.391  -9.950  1.00  0.00    -0.027 C 
HETATM   17  C   UNL     1      42.128  11.842  -8.913  1.00  0.00    -0.027 C 
BRANCH  17  18
HETATM   18  C   UNL     1      42.366  10.377  -8.659  1.00  0.00     0.053 C 
BRANCH  18  19
HETATM   19  C   UNL     1      41.224   9.780  -7.870  1.00  0.00    -0.027 C 
HETATM   20  C   UNL     1      40.399   8.782  -8.247  1.00  0.00    -0.027 C 
BRANCH  20  21
HETATM   21  C   UNL     1      40.458   7.988  -9.529  1.00  0.00     0.053 C 
BRANCH  21  22
HETATM   22  C   UNL     1      39.148   7.278  -9.782  1.00  0.00    -0.027 C 
HETATM   23  C   UNL     1      38.066   7.767 -10.417  1.00  0.00    -0.031 C 
BRANCH  23  24
HETATM   24  C   UNL     1      37.916   9.147 -11.002  1.00  0.00     0.022 C 
HETATM   25  C   UNL     1      37.391  10.156  -9.988  1.00  0.00     0.009 C 
ENDBRANCH  23  24
ENDBRANCH  21  22
ENDBRANCH  20  21
ENDBRANCH  18  19
ENDBRANCH  17  18
ENDBRANCH  15  16
ENDBRANCH  14  15
ENDBRANCH  12  13
ENDBRANCH  11  12
ENDBRANCH   9  10
ENDBRANCH   8   9
ENDBRANCH   6   7
ENDBRANCH   5   6
ENDBRANCH   3   5
ENDBRANCH   1   3
TORSDOF 15
ENDMDL
MODEL 17
REMARK VINA RESULT:      -4.9     23.917     26.617
REMARK  15 active torsions:
REMARK  status: ('A' for Active; 'I' for Inactive)
REMARK    1  A    between atoms: O_1  and  C_23 
REMARK    2  A    between atoms: C_3  and  C_7 
REMARK    3  A    between atoms: C_3  and  C_8 
REMARK    4  A    between atoms: C_4  and  C_10 
REMARK    5  A    between atoms: C_4  and  C_11 
REMARK    6  A    between atoms: C_5  and  C_12 
REMARK    7  A    between atoms: C_5  and  C_13 
REMARK    8  A    between atoms: C_6  and  C_15 
REMARK    9  A    between atoms: C_6  and  C_16 
REMARK   10  A    between atoms: C_7  and  C_23 
REMARK   11  A    between atoms: C_9  and  C_17 
REMARK   12  A    between atoms: C_9  and  C_18 
REMARK   13  A    between atoms: C_14  and  C_19 
REMARK   14  A    between atoms: C_14  and  C_20 
REMARK   15  A    between atoms: C_21  and  C_22 
ROOT
HETATM    1  O   UNL     1      31.841 -21.095  -5.278  1.00  0.00    -0.776 OA
HETATM    2  H   UNL     1      31.764 -21.727  -4.550  1.00  0.00     0.167 HD
ENDROOT
BRANCH   1   3
HETATM    3  C   UNL     1      30.901 -20.151  -5.493  1.00  0.00     0.139 C 
HETATM    4  O   UNL     1      30.706 -19.726  -6.623  1.00  0.00    -0.650 OA
BRANCH   3   5
HETATM    5  C   UNL     1      30.093 -19.627  -4.340  1.00  0.00     0.113 C 
BRANCH   5   6
HETATM    6  C   UNL     1      30.700 -18.331  -3.790  1.00  0.00     0.037 C 
BRANCH   6   7
HETATM    7  C   UNL     1      29.874 -17.138  -4.207  1.00  0.00    -0.030 C 
HETATM    8  C   UNL     1      30.173 -16.239  -5.169  1.00  0.00    -0.027 C 
BRANCH   8   9
HETATM    9  C   UNL     1      31.400 -16.212  -6.056  1.00  0.00     0.053 C 
BRANCH   9  10
HETATM   10  C   UNL     1      32.434 -15.259  -5.512  1.00  0.00    -0.027 C 
HETATM   11  C   UNL     1      33.257 -14.490  -6.248  1.00  0.00    -0.027 C 
BRANCH  11  12
HETATM   12  C   UNL     1      33.256 -14.399  -7.752  1.00  0.00     0.053 C 
BRANCH  12  13
HETATM   13  C   UNL     1      34.303 -13.424  -8.232  1.00  0.00    -0.027 C 
HETATM   14  C   UNL     1      34.114 -12.125  -8.528  1.00  0.00    -0.027 C 
BRANCH  14  15
HETATM   15  C   UNL     1      32.803 -11.387  -8.487  1.00  0.00     0.053 C 
BRANCH  15  16
HETATM   16  C   UNL     1      32.267 -11.280  -9.897  1.00  0.00    -0.027 C 
HETATM   17  C   UNL     1      31.026 -11.571 -10.337  1.00  0.00    -0.027 C 
BRANCH  17  18
HETATM   18  C   UNL     1      29.861 -12.059  -9.515  1.00  0.00     0.053 C 
BRANCH  18  19
HETATM   19  C   UNL     1      30.042 -13.512  -9.145  1.00  0.00    -0.027 C 
HETATM   20  C   UNL     1      29.164 -14.312  -8.506  1.00  0.00    -0.027 C 
BRANCH  20  21
HETATM   21  C   UNL     1      27.768 -13.955  -8.059  1.00  0.00     0.053 C 
BRANCH  21  22
HETATM   22  C   UNL     1      27.632 -14.089  -6.560  1.00  0.00    -0.027 C 
HETATM   23  C   UNL     1      28.043 -13.211  -5.623  1.00  0.00    -0.031 C 
BRANCH  23  24
HETATM   24  C   UNL     1      28.750 -11.904  -5.867  1.00  0.00     0.022 C 
HETATM   25  C   UNL     1      30.263 -12.025  -5.737  1.00  0.00     0.009 C 
ENDBRANCH  23  24
ENDBRANCH  21  22
ENDBRANCH  20  21
ENDBRANCH  18  19
ENDBRANCH  17  18
ENDBRANCH  15  16
ENDBRANCH  14  15
ENDBRANCH  12  13
ENDBRANCH  11  12
ENDBRANCH   9  10
ENDBRANCH   8   9
ENDBRANCH   6   7
ENDBRANCH   5   6
ENDBRANCH   3   5
ENDBRANCH   1   3
TORSDOF 15
ENDMDL
MODEL 18
REMARK VINA RESULT:      -4.8      2.672      5.594
REMARK  15 active torsions:
REMARK  status: ('A' for Active; 'I' for Inactive)
REMARK    1  A    between atoms: O_1  and  C_23 
REMARK    2  A    between atoms: C_3  and  C_7 
REMARK    3  A    between atoms: C_3  and  C_8 
REMARK    4  A    between atoms: C_4  and  C_10 
REMARK    5  A    between atoms: C_4  and  C_11 
REMARK    6  A    between atoms: C_5  and  C_12 
REMARK    7  A    between atoms: C_5  and  C_13 
REMARK    8  A    between atoms: C_6  and  C_15 
REMARK    9  A    between atoms: C_6  and  C_16 
REMARK   10  A    between atoms: C_7  and  C_23 
REMARK   11  A    between atoms: C_9  and  C_17 
REMARK   12  A    between atoms: C_9  and  C_18 
REMARK   13  A    between atoms: C_14  and  C_19 
REMARK   14  A    between atoms: C_14  and  C_20 
REMARK   15  A    between atoms: C_21  and  C_22 
ROOT
HETATM    1  O   UNL     1      41.140  13.658 -17.065  1.00  0.00    -0.776 OA
HETATM    2  H   UNL     1      41.580  14.454 -16.736  1.00  0.00     0.167 HD
ENDROOT
BRANCH   1   3
HETATM    3  C   UNL     1      41.779  12.470 -17.118  1.00  0.00     0.139 C 
HETATM    4  O   UNL     1      42.961  12.424 -17.428  1.00  0.00    -0.650 OA
BRANCH   3   5
HETATM    5  C   UNL     1      41.035  11.207 -16.791  1.00  0.00     0.113 C 
BRANCH   5   6
HETATM    6  C   UNL     1      41.466  10.063 -17.716  1.00  0.00     0.037 C 
BRANCH   6   7
HETATM    7  C   UNL     1      40.597  10.020 -18.950  1.00  0.00    -0.030 C 
HETATM    8  C   UNL     1      39.504   9.253 -19.147  1.00  0.00    -0.027 C 
BRANCH   8   9
HETATM    9  C   UNL     1      38.890   8.259 -18.185  1.00  0.00     0.053 C 
BRANCH   9  10
HETATM   10  C   UNL     1      38.047   8.962 -17.152  1.00  0.00    -0.027 C 
HETATM   11  C   UNL     1      37.843   8.547 -15.889  1.00  0.00    -0.027 C 
BRANCH  11  12
HETATM   12  C   UNL     1      38.469   7.331 -15.257  1.00  0.00     0.053 C 
BRANCH  12  13
HETATM   13  C   UNL     1      39.934   7.560 -14.983  1.00  0.00    -0.027 C 
HETATM   14  C   UNL     1      40.476   7.996 -13.830  1.00  0.00    -0.027 C 
BRANCH  14  15
HETATM   15  C   UNL     1      39.722   8.391 -12.588  1.00  0.00     0.053 C 
BRANCH  15  16
HETATM   16  C   UNL     1      39.444   7.145 -11.777  1.00  0.00    -0.027 C 
HETATM   17  C   UNL     1      38.788   7.050 -10.603  1.00  0.00    -0.027 C 
BRANCH  17  18
HETATM   18  C   UNL     1      38.153   8.170  -9.823  1.00  0.00     0.053 C 
BRANCH  18  19
HETATM   19  C   UNL     1      39.168   8.835  -8.922  1.00  0.00    -0.027 C 
HETATM   20  C   UNL     1      39.637   8.383  -7.741  1.00  0.00    -0.027 C 
BRANCH  20  21
HETATM   21  C   UNL     1      39.298   7.077  -7.066  1.00  0.00     0.053 C 
BRANCH  21  22
HETATM   22  C   UNL     1      38.674   7.317  -5.712  1.00  0.00    -0.027 C 
HETATM   23  C   UNL     1      39.302   7.687  -4.579  1.00  0.00    -0.031 C 
BRANCH  23  24
HETATM   24  C   UNL     1      40.779   7.926  -4.409  1.00  0.00     0.022 C 
HETATM   25  C   UNL     1      41.096   9.363  -4.017  1.00  0.00     0.009 C 
ENDBRANCH  23  24
ENDBRANCH  21  22
ENDBRANCH  20  21
ENDBRANCH  18  19
ENDBRANCH  17  18
ENDBRANCH  15  16
ENDBRANCH  14  15
ENDBRANCH  12  13
ENDBRANCH  11  12
ENDBRANCH   9  10
ENDBRANCH   8   9
ENDBRANCH   6   7
ENDBRANCH   5   6
ENDBRANCH   3   5
ENDBRANCH   1   3
TORSDOF 15
ENDMDL
MODEL 19
REMARK VINA RESULT:      -4.8      3.713      8.954
REMARK  15 active torsions:
REMARK  status: ('A' for Active; 'I' for Inactive)
REMARK    1  A    between atoms: O_1  and  C_23 
REMARK    2  A    between atoms: C_3  and  C_7 
REMARK    3  A    between atoms: C_3  and  C_8 
REMARK    4  A    between atoms: C_4  and  C_10 
REMARK    5  A    between atoms: C_4  and  C_11 
REMARK    6  A    between atoms: C_5  and  C_12 
REMARK    7  A    between atoms: C_5  and  C_13 
REMARK    8  A    between atoms: C_6  and  C_15 
REMARK    9  A    between atoms: C_6  and  C_16 
REMARK   10  A    between atoms: C_7  and  C_23 
REMARK   11  A    between atoms: C_9  and  C_17 
REMARK   12  A    between atoms: C_9  and  C_18 
REMARK   13  A    between atoms: C_14  and  C_19 
REMARK   14  A    between atoms: C_14  and  C_20 
REMARK   15  A    between atoms: C_21  and  C_22 
ROOT
HETATM    1  O   UNL     1      40.740   7.536  -9.405  1.00  0.00    -0.776 OA
HETATM    2  H   UNL     1      41.466   7.730  -8.796  1.00  0.00     0.167 HD
ENDROOT
BRANCH   1   3
HETATM    3  C   UNL     1      39.466   7.430  -8.971  1.00  0.00     0.139 C 
HETATM    4  O   UNL     1      39.226   6.881  -7.905  1.00  0.00    -0.650 OA
BRANCH   3   5
HETATM    5  C   UNL     1      38.347   7.990  -9.801  1.00  0.00     0.113 C 
BRANCH   5   6
HETATM    6  C   UNL     1      38.833   9.170 -10.651  1.00  0.00     0.037 C 
BRANCH   6   7
HETATM    7  C   UNL     1      37.897   9.411 -11.811  1.00  0.00    -0.030 C 
HETATM    8  C   UNL     1      38.111   9.095 -13.106  1.00  0.00    -0.027 C 
BRANCH   8   9
HETATM    9  C   UNL     1      39.332   8.428 -13.702  1.00  0.00     0.053 C 
BRANCH   9  10
HETATM   10  C   UNL     1      38.957   7.138 -14.388  1.00  0.00    -0.027 C 
HETATM   11  C   UNL     1      39.036   6.898 -15.709  1.00  0.00    -0.027 C 
BRANCH  11  12
HETATM   12  C   UNL     1      39.570   7.858 -16.740  1.00  0.00     0.053 C 
BRANCH  12  13
HETATM   13  C   UNL     1      38.451   8.647 -17.372  1.00  0.00    -0.027 C 
HETATM   14  C   UNL     1      38.253   8.849 -18.688  1.00  0.00    -0.027 C 
BRANCH  14  15
HETATM   15  C   UNL     1      39.143   8.366 -19.802  1.00  0.00     0.053 C 
BRANCH  15  16
HETATM   16  C   UNL     1      39.821   9.564 -20.430  1.00  0.00    -0.027 C 
HETATM   17  C   UNL     1      40.975  10.152 -20.057  1.00  0.00    -0.027 C 
BRANCH  17  18
HETATM   18  C   UNL     1      41.882   9.741 -18.928  1.00  0.00     0.053 C 
BRANCH  18  19
HETATM   19  C   UNL     1      42.442  10.955 -18.224  1.00  0.00    -0.027 C 
HETATM   20  C   UNL     1      42.155  11.388 -16.980  1.00  0.00    -0.027 C 
BRANCH  20  21
HETATM   21  C   UNL     1      41.245  10.728 -15.974  1.00  0.00     0.053 C 
BRANCH  21  22
HETATM   22  C   UNL     1      40.768  11.725 -14.944  1.00  0.00    -0.027 C 
HETATM   23  C   UNL     1      39.511  12.178 -14.769  1.00  0.00    -0.031 C 
BRANCH  23  24
HETATM   24  C   UNL     1      38.300  11.801 -15.582  1.00  0.00     0.022 C 
HETATM   25  C   UNL     1      38.316  12.418 -16.974  1.00  0.00     0.009 C 
ENDBRANCH  23  24
ENDBRANCH  21  22
ENDBRANCH  20  21
ENDBRANCH  18  19
ENDBRANCH  17  18
ENDBRANCH  15  16
ENDBRANCH  14  15
ENDBRANCH  12  13
ENDBRANCH  11  12
ENDBRANCH   9  10
ENDBRANCH   8   9
ENDBRANCH   6   7
ENDBRANCH   5   6
ENDBRANCH   3   5
ENDBRANCH   1   3
TORSDOF 15
ENDMDL
MODEL 20
REMARK VINA RESULT:      -4.7     25.035     27.388
REMARK  15 active torsions:
REMARK  status: ('A' for Active; 'I' for Inactive)
REMARK    1  A    between atoms: O_1  and  C_23 
REMARK    2  A    between atoms: C_3  and  C_7 
REMARK    3  A    between atoms: C_3  and  C_8 
REMARK    4  A    between atoms: C_4  and  C_10 
REMARK    5  A    between atoms: C_4  and  C_11 
REMARK    6  A    between atoms: C_5  and  C_12 
REMARK    7  A    between atoms: C_5  and  C_13 
REMARK    8  A    between atoms: C_6  and  C_15 
REMARK    9  A    between atoms: C_6  and  C_16 
REMARK   10  A    between atoms: C_7  and  C_23 
REMARK   11  A    between atoms: C_9  and  C_17 
REMARK   12  A    between atoms: C_9  and  C_18 
REMARK   13  A    between atoms: C_14  and  C_19 
REMARK   14  A    between atoms: C_14  and  C_20 
REMARK   15  A    between atoms: C_21  and  C_22 
ROOT
HETATM    1  O   UNL     1      28.951 -16.514  -9.396  1.00  0.00    -0.776 OA
HETATM    2  H   UNL     1      29.087 -15.997 -10.202  1.00  0.00     0.167 HD
ENDROOT
BRANCH   1   3
HETATM    3  C   UNL     1      29.901 -17.352  -8.928  1.00  0.00     0.139 C 
HETATM    4  O   UNL     1      29.868 -17.726  -7.764  1.00  0.00    -0.650 OA
BRANCH   3   5
HETATM    5  C   UNL     1      30.995 -17.825  -9.842  1.00  0.00     0.113 C 
BRANCH   5   6
HETATM    6  C   UNL     1      30.434 -18.195 -11.220  1.00  0.00     0.037 C 
BRANCH   6   7
HETATM    7  C   UNL     1      30.850 -19.595 -11.605  1.00  0.00    -0.030 C 
HETATM    8  C   UNL     1      30.589 -20.228 -12.768  1.00  0.00    -0.027 C 
BRANCH   8   9
HETATM    9  C   UNL     1      29.823 -19.692 -13.958  1.00  0.00     0.053 C 
BRANCH   9  10
HETATM   10  C   UNL     1      30.755 -19.032 -14.943  1.00  0.00    -0.027 C 
HETATM   11  C   UNL     1      30.763 -17.726 -15.264  1.00  0.00    -0.027 C 
BRANCH  11  12
HETATM   12  C   UNL     1      29.879 -16.670 -14.652  1.00  0.00     0.053 C 
BRANCH  12  13
HETATM   13  C   UNL     1      29.549 -15.596 -15.658  1.00  0.00    -0.027 C 
HETATM   14  C   UNL     1      30.059 -14.351 -15.699  1.00  0.00    -0.027 C 
BRANCH  14  15
HETATM   15  C   UNL     1      31.031 -13.757 -14.714  1.00  0.00     0.053 C 
BRANCH  15  16
HETATM   16  C   UNL     1      32.434 -14.128 -15.141  1.00  0.00    -0.027 C 
HETATM   17  C   UNL     1      33.296 -14.960 -14.521  1.00  0.00    -0.027 C 
BRANCH  17  18
HETATM   18  C   UNL     1      33.057 -15.739 -13.255  1.00  0.00     0.053 C 
BRANCH  18  19
HETATM   19  C   UNL     1      33.420 -14.913 -12.044  1.00  0.00    -0.027 C 
HETATM   20  C   UNL     1      32.579 -14.319 -11.173  1.00  0.00    -0.027 C 
BRANCH  20  21
HETATM   21  C   UNL     1      31.072 -14.386 -11.174  1.00  0.00     0.053 C 
BRANCH  21  22
HETATM   22  C   UNL     1      30.471 -13.000 -11.210  1.00  0.00    -0.027 C 
HETATM   23  C   UNL     1      29.166 -12.679 -11.303  1.00  0.00    -0.031 C 
BRANCH  23  24
HETATM   24  C   UNL     1      28.011 -13.641 -11.411  1.00  0.00     0.022 C 
HETATM   25  C   UNL     1      27.671 -13.984 -12.856  1.00  0.00     0.009 C 
ENDBRANCH  23  24
ENDBRANCH  21  22
ENDBRANCH  20  21
ENDBRANCH  18  19
ENDBRANCH  17  18
ENDBRANCH  15  16
ENDBRANCH  14  15
ENDBRANCH  12  13
ENDBRANCH  11  12
ENDBRANCH   9  10
ENDBRANCH   8   9
ENDBRANCH   6   7
ENDBRANCH   5   6
ENDBRANCH   3   5
ENDBRANCH   1   3
TORSDOF 15
ENDMDL
