MODEL 1
REMARK VINA RESULT:      -4.1      0.000      0.000
REMARK  15 active torsions:
REMARK  status: ('A' for Active; 'I' for Inactive)
REMARK    1  A    between atoms: O_1  and  C_23 
REMARK    2  A    between atoms: C_3  and  C_7 
REMARK    3  A    between atoms: C_3  and  C_8 
REMARK    4  A    between atoms: C_4  and  C_10 
REMARK    5  A    between atoms: C_4  and  C_11 
REMARK    6  A    between atoms: C_5  and  C_12 
REMARK    7  A    between atoms: C_5  and  C_13 
REMARK    8  A    between atoms: C_6  and  C_15 
REMARK    9  A    between atoms: C_6  and  C_16 
REMARK   10  A    between atoms: C_7  and  C_23 
REMARK   11  A    between atoms: C_9  and  C_17 
REMARK   12  A    between atoms: C_9  and  C_18 
REMARK   13  A    between atoms: C_14  and  C_19 
REMARK   14  A    between atoms: C_14  and  C_20 
REMARK   15  A    between atoms: C_21  and  C_22 
ROOT
HETATM    1  O   UNL     1      13.223 -13.166  -9.833  1.00  0.00    -0.776 OA
HETATM    2  H   UNL     1      13.820 -13.396 -10.557  1.00  0.00     0.167 HD
ENDROOT
BRANCH   1   3
HETATM    3  C   UNL     1      12.076 -13.847  -9.621  1.00  0.00     0.139 C 
HETATM    4  O   UNL     1      12.107 -15.054  -9.433  1.00  0.00    -0.650 OA
BRANCH   3   5
HETATM    5  C   UNL     1      10.764 -13.115  -9.615  1.00  0.00     0.113 C 
BRANCH   5   6
HETATM    6  C   UNL     1      10.265 -12.875 -11.045  1.00  0.00     0.037 C 
BRANCH   6   7
HETATM    7  C   UNL     1       9.016 -12.026 -11.037  1.00  0.00    -0.030 C 
HETATM    8  C   UNL     1       7.738 -12.462 -11.040  1.00  0.00    -0.027 C 
BRANCH   8   9
HETATM    9  C   UNL     1       7.254 -13.896 -11.052  1.00  0.00     0.053 C 
BRANCH   9  10
HETATM   10  C   UNL     1       7.382 -14.494 -12.430  1.00  0.00    -0.027 C 
HETATM   11  C   UNL     1       7.901 -15.702 -12.717  1.00  0.00    -0.027 C 
BRANCH  11  12
HETATM   12  C   UNL     1       8.396 -16.703 -11.706  1.00  0.00     0.053 C 
BRANCH  12  13
HETATM   13  C   UNL     1       9.866 -16.506 -11.429  1.00  0.00    -0.027 C 
HETATM   14  C   UNL     1      10.892 -16.979 -12.162  1.00  0.00    -0.027 C 
BRANCH  14  15
HETATM   15  C   UNL     1      10.780 -17.848 -13.387  1.00  0.00     0.053 C 
BRANCH  15  16
HETATM   16  C   UNL     1      11.750 -17.336 -14.429  1.00  0.00    -0.027 C 
HETATM   17  C   UNL     1      11.604 -16.274 -15.246  1.00  0.00    -0.027 C 
BRANCH  17  18
HETATM   18  C   UNL     1      10.437 -15.323 -15.302  1.00  0.00     0.053 C 
BRANCH  18  19
HETATM   19  C   UNL     1      10.765 -14.033 -14.587  1.00  0.00    -0.027 C 
HETATM   20  C   UNL     1      10.046 -12.892 -14.582  1.00  0.00    -0.027 C 
BRANCH  20  21
HETATM   21  C   UNL     1       8.713 -12.653 -15.247  1.00  0.00     0.053 C 
BRANCH  21  22
HETATM   22  C   UNL     1       8.865 -11.745 -16.445  1.00  0.00    -0.027 C 
HETATM   23  C   UNL     1       9.103 -12.110 -17.720  1.00  0.00    -0.031 C 
BRANCH  23  24
HETATM   24  C   UNL     1       9.288 -13.515 -18.231  1.00  0.00     0.022 C 
HETATM   25  C   UNL     1       7.964 -14.237 -18.447  1.00  0.00     0.009 C 
ENDBRANCH  23  24
ENDBRANCH  21  22
ENDBRANCH  20  21
ENDBRANCH  18  19
ENDBRANCH  17  18
ENDBRANCH  15  16
ENDBRANCH  14  15
ENDBRANCH  12  13
ENDBRANCH  11  12
ENDBRANCH   9  10
ENDBRANCH   8   9
ENDBRANCH   6   7
ENDBRANCH   5   6
ENDBRANCH   3   5
ENDBRANCH   1   3
TORSDOF 15
ENDMDL
MODEL 2
REMARK VINA RESULT:      -4.0      2.596      6.686
REMARK  15 active torsions:
REMARK  status: ('A' for Active; 'I' for Inactive)
REMARK    1  A    between atoms: O_1  and  C_23 
REMARK    2  A    between atoms: C_3  and  C_7 
REMARK    3  A    between atoms: C_3  and  C_8 
REMARK    4  A    between atoms: C_4  and  C_10 
REMARK    5  A    between atoms: C_4  and  C_11 
REMARK    6  A    between atoms: C_5  and  C_12 
REMARK    7  A    between atoms: C_5  and  C_13 
REMARK    8  A    between atoms: C_6  and  C_15 
REMARK    9  A    between atoms: C_6  and  C_16 
REMARK   10  A    between atoms: C_7  and  C_23 
REMARK   11  A    between atoms: C_9  and  C_17 
REMARK   12  A    between atoms: C_9  and  C_18 
REMARK   13  A    between atoms: C_14  and  C_19 
REMARK   14  A    between atoms: C_14  and  C_20 
REMARK   15  A    between atoms: C_21  and  C_22 
ROOT
HETATM    1  O   UNL     1      10.324 -11.394 -14.850  1.00  0.00    -0.776 OA
HETATM    2  H   UNL     1      10.698 -10.756 -15.473  1.00  0.00     0.167 HD
ENDROOT
BRANCH   1   3
HETATM    3  C   UNL     1      10.907 -12.593 -14.634  1.00  0.00     0.139 C 
HETATM    4  O   UNL     1      12.064 -12.782 -14.982  1.00  0.00    -0.650 OA
BRANCH   3   5
HETATM    5  C   UNL     1      10.131 -13.690 -13.963  1.00  0.00     0.113 C 
BRANCH   5   6
HETATM    6  C   UNL     1      10.946 -14.987 -13.916  1.00  0.00     0.037 C 
BRANCH   6   7
HETATM    7  C   UNL     1      10.137 -16.144 -14.449  1.00  0.00    -0.030 C 
HETATM    8  C   UNL     1       9.218 -16.870 -13.778  1.00  0.00    -0.027 C 
BRANCH   8   9
HETATM    9  C   UNL     1       8.781 -16.700 -12.339  1.00  0.00     0.053 C 
BRANCH   9  10
HETATM   10  C   UNL     1       7.373 -16.166 -12.265  1.00  0.00    -0.027 C 
HETATM   11  C   UNL     1       6.964 -15.135 -11.504  1.00  0.00    -0.027 C 
BRANCH  11  12
HETATM   12  C   UNL     1       7.851 -14.287 -10.629  1.00  0.00     0.053 C 
BRANCH  12  13
HETATM   13  C   UNL     1       7.789 -12.838 -11.044  1.00  0.00    -0.027 C 
HETATM   14  C   UNL     1       8.553 -11.835 -10.572  1.00  0.00    -0.027 C 
BRANCH  14  15
HETATM   15  C   UNL     1       9.597 -11.947  -9.493  1.00  0.00     0.053 C 
BRANCH  15  16
HETATM   16  C   UNL     1       8.902 -12.226  -8.179  1.00  0.00    -0.027 C 
HETATM   17  C   UNL     1       9.358 -12.952  -7.138  1.00  0.00    -0.027 C 
BRANCH  17  18
HETATM   18  C   UNL     1      10.689 -13.647  -7.028  1.00  0.00     0.053 C 
BRANCH  18  19
HETATM   19  C   UNL     1      10.533 -14.996  -6.366  1.00  0.00    -0.027 C 
HETATM   20  C   UNL     1      10.117 -16.146  -6.935  1.00  0.00    -0.027 C 
BRANCH  20  21
HETATM   21  C   UNL     1       9.761 -16.368  -8.384  1.00  0.00     0.053 C 
BRANCH  21  22
HETATM   22  C   UNL     1      10.950 -16.890  -9.157  1.00  0.00    -0.027 C 
HETATM   23  C   UNL     1      11.701 -16.217 -10.050  1.00  0.00    -0.031 C 
BRANCH  23  24
HETATM   24  C   UNL     1      11.506 -14.790 -10.492  1.00  0.00     0.022 C 
HETATM   25  C   UNL     1      12.619 -13.871 -10.004  1.00  0.00     0.009 C 
ENDBRANCH  23  24
ENDBRANCH  21  22
ENDBRANCH  20  21
ENDBRANCH  18  19
ENDBRANCH  17  18
ENDBRANCH  15  16
ENDBRANCH  14  15
ENDBRANCH  12  13
ENDBRANCH  11  12
ENDBRANCH   9  10
ENDBRANCH   8   9
ENDBRANCH   6   7
ENDBRANCH   5   6
ENDBRANCH   3   5
ENDBRANCH   1   3
TORSDOF 15
ENDMDL
MODEL 3
REMARK VINA RESULT:      -3.9      1.493      4.566
REMARK  15 active torsions:
REMARK  status: ('A' for Active; 'I' for Inactive)
REMARK    1  A    between atoms: O_1  and  C_23 
REMARK    2  A    between atoms: C_3  and  C_7 
REMARK    3  A    between atoms: C_3  and  C_8 
REMARK    4  A    between atoms: C_4  and  C_10 
REMARK    5  A    between atoms: C_4  and  C_11 
REMARK    6  A    between atoms: C_5  and  C_12 
REMARK    7  A    between atoms: C_5  and  C_13 
REMARK    8  A    between atoms: C_6  and  C_15 
REMARK    9  A    between atoms: C_6  and  C_16 
REMARK   10  A    between atoms: C_7  and  C_23 
REMARK   11  A    between atoms: C_9  and  C_17 
REMARK   12  A    between atoms: C_9  and  C_18 
REMARK   13  A    between atoms: C_14  and  C_19 
REMARK   14  A    between atoms: C_14  and  C_20 
REMARK   15  A    between atoms: C_21  and  C_22 
ROOT
HETATM    1  O   UNL     1      13.168 -13.239  -9.846  1.00  0.00    -0.776 OA
HETATM    2  H   UNL     1      13.769 -13.414  -9.109  1.00  0.00     0.167 HD
ENDROOT
BRANCH   1   3
HETATM    3  C   UNL     1      11.852 -13.533  -9.766  1.00  0.00     0.139 C 
HETATM    4  O   UNL     1      11.316 -13.647  -8.674  1.00  0.00    -0.650 OA
BRANCH   3   5
HETATM    5  C   UNL     1      11.051 -13.714 -11.024  1.00  0.00     0.113 C 
BRANCH   5   6
HETATM    6  C   UNL     1       9.814 -12.809 -11.020  1.00  0.00     0.037 C 
BRANCH   6   7
HETATM    7  C   UNL     1       8.751 -13.356 -11.942  1.00  0.00    -0.030 C 
HETATM    8  C   UNL     1       8.692 -13.221 -13.284  1.00  0.00    -0.027 C 
BRANCH   8   9
HETATM    9  C   UNL     1       9.672 -12.495 -14.181  1.00  0.00     0.053 C 
BRANCH   9  10
HETATM   10  C   UNL     1       8.944 -11.665 -15.209  1.00  0.00    -0.027 C 
HETATM   11  C   UNL     1       8.936 -11.889 -16.536  1.00  0.00    -0.027 C 
BRANCH  11  12
HETATM   12  C   UNL     1       9.606 -13.044 -17.232  1.00  0.00     0.053 C 
BRANCH  12  13
HETATM   13  C   UNL     1       8.589 -13.921 -17.920  1.00  0.00    -0.027 C 
HETATM   14  C   UNL     1       7.972 -14.997 -17.398  1.00  0.00    -0.027 C 
BRANCH  14  15
HETATM   15  C   UNL     1       8.209 -15.579 -16.029  1.00  0.00     0.053 C 
BRANCH  15  16
HETATM   16  C   UNL     1       6.878 -16.001 -15.449  1.00  0.00    -0.027 C 
HETATM   17  C   UNL     1       6.646 -16.921 -14.491  1.00  0.00    -0.027 C 
BRANCH  17  18
HETATM   18  C   UNL     1       7.669 -17.741 -13.751  1.00  0.00     0.053 C 
BRANCH  18  19
HETATM   19  C   UNL     1       8.103 -17.037 -12.486  1.00  0.00    -0.027 C 
HETATM   20  C   UNL     1       9.363 -16.839 -12.048  1.00  0.00    -0.027 C 
BRANCH  20  21
HETATM   21  C   UNL     1      10.642 -17.228 -12.748  1.00  0.00     0.053 C 
BRANCH  21  22
HETATM   22  C   UNL     1      11.087 -16.141 -13.698  1.00  0.00    -0.027 C 
HETATM   23  C   UNL     1      11.661 -16.300 -14.907  1.00  0.00    -0.031 C 
BRANCH  23  24
HETATM   24  C   UNL     1      12.006 -17.607 -15.571  1.00  0.00     0.022 C 
HETATM   25  C   UNL     1      10.867 -18.144 -16.428  1.00  0.00     0.009 C 
ENDBRANCH  23  24
ENDBRANCH  21  22
ENDBRANCH  20  21
ENDBRANCH  18  19
ENDBRANCH  17  18
ENDBRANCH  15  16
ENDBRANCH  14  15
ENDBRANCH  12  13
ENDBRANCH  11  12
ENDBRANCH   9  10
ENDBRANCH   8   9
ENDBRANCH   6   7
ENDBRANCH   5   6
ENDBRANCH   3   5
ENDBRANCH   1   3
TORSDOF 15
ENDMDL
MODEL 4
REMARK VINA RESULT:      -3.8      3.775      6.251
REMARK  15 active torsions:
REMARK  status: ('A' for Active; 'I' for Inactive)
REMARK    1  A    between atoms: O_1  and  C_23 
REMARK    2  A    between atoms: C_3  and  C_7 
REMARK    3  A    between atoms: C_3  and  C_8 
REMARK    4  A    between atoms: C_4  and  C_10 
REMARK    5  A    between atoms: C_4  and  C_11 
REMARK    6  A    between atoms: C_5  and  C_12 
REMARK    7  A    between atoms: C_5  and  C_13 
REMARK    8  A    between atoms: C_6  and  C_15 
REMARK    9  A    between atoms: C_6  and  C_16 
REMARK   10  A    between atoms: C_7  and  C_23 
REMARK   11  A    between atoms: C_9  and  C_17 
REMARK   12  A    between atoms: C_9  and  C_18 
REMARK   13  A    between atoms: C_14  and  C_19 
REMARK   14  A    between atoms: C_14  and  C_20 
REMARK   15  A    between atoms: C_21  and  C_22 
ROOT
HETATM    1  O   UNL     1      10.229 -12.996 -20.335  1.00  0.00    -0.776 OA
HETATM    2  H   UNL     1      11.032 -13.535 -20.325  1.00  0.00     0.167 HD
ENDROOT
BRANCH   1   3
HETATM    3  C   UNL     1       9.862 -12.262 -19.263  1.00  0.00     0.139 C 
HETATM    4  O   UNL     1       9.662 -11.061 -19.382  1.00  0.00    -0.650 OA
BRANCH   3   5
HETATM    5  C   UNL     1       9.695 -12.926 -17.925  1.00  0.00     0.113 C 
BRANCH   5   6
HETATM    6  C   UNL     1       8.923 -12.022 -16.958  1.00  0.00     0.037 C 
BRANCH   6   7
HETATM    7  C   UNL     1       8.068 -12.847 -16.026  1.00  0.00    -0.030 C 
HETATM    8  C   UNL     1       8.224 -12.989 -14.693  1.00  0.00    -0.027 C 
BRANCH   8   9
HETATM    9  C   UNL     1       9.287 -12.360 -13.817  1.00  0.00     0.053 C 
BRANCH   9  10
HETATM   10  C   UNL     1       8.886 -12.414 -12.364  1.00  0.00    -0.027 C 
HETATM   11  C   UNL     1       9.539 -13.079 -11.394  1.00  0.00    -0.027 C 
BRANCH  11  12
HETATM   12  C   UNL     1      10.824 -13.845 -11.571  1.00  0.00     0.053 C 
BRANCH  12  13
HETATM   13  C   UNL     1      10.562 -15.329 -11.635  1.00  0.00    -0.027 C 
HETATM   14  C   UNL     1      10.543 -16.093 -12.743  1.00  0.00    -0.027 C 
BRANCH  14  15
HETATM   15  C   UNL     1      10.733 -15.611 -14.157  1.00  0.00     0.053 C 
BRANCH  15  16
HETATM   16  C   UNL     1       9.847 -16.432 -15.068  1.00  0.00    -0.027 C 
HETATM   17  C   UNL     1       9.980 -16.630 -16.395  1.00  0.00    -0.027 C 
BRANCH  17  18
HETATM   18  C   UNL     1      11.064 -16.091 -17.291  1.00  0.00     0.053 C 
BRANCH  18  19
HETATM   19  C   UNL     1      10.817 -16.491 -18.726  1.00  0.00    -0.027 C 
HETATM   20  C   UNL     1      11.451 -17.450 -19.432  1.00  0.00    -0.027 C 
BRANCH  20  21
HETATM   21  C   UNL     1      12.523 -18.388 -18.934  1.00  0.00     0.053 C 
BRANCH  21  22
HETATM   22  C   UNL     1      11.937 -19.432 -18.012  1.00  0.00    -0.027 C 
HETATM   23  C   UNL     1      12.334 -19.729 -16.759  1.00  0.00    -0.031 C 
BRANCH  23  24
HETATM   24  C   UNL     1      13.471 -19.091 -16.004  1.00  0.00     0.022 C 
HETATM   25  C   UNL     1      13.003 -18.365 -14.749  1.00  0.00     0.009 C 
ENDBRANCH  23  24
ENDBRANCH  21  22
ENDBRANCH  20  21
ENDBRANCH  18  19
ENDBRANCH  17  18
ENDBRANCH  15  16
ENDBRANCH  14  15
ENDBRANCH  12  13
ENDBRANCH  11  12
ENDBRANCH   9  10
ENDBRANCH   8   9
ENDBRANCH   6   7
ENDBRANCH   5   6
ENDBRANCH   3   5
ENDBRANCH   1   3
TORSDOF 15
ENDMDL
MODEL 5
REMARK VINA RESULT:      -3.7      2.657      6.685
REMARK  15 active torsions:
REMARK  status: ('A' for Active; 'I' for Inactive)
REMARK    1  A    between atoms: O_1  and  C_23 
REMARK    2  A    between atoms: C_3  and  C_7 
REMARK    3  A    between atoms: C_3  and  C_8 
REMARK    4  A    between atoms: C_4  and  C_10 
REMARK    5  A    between atoms: C_4  and  C_11 
REMARK    6  A    between atoms: C_5  and  C_12 
REMARK    7  A    between atoms: C_5  and  C_13 
REMARK    8  A    between atoms: C_6  and  C_15 
REMARK    9  A    between atoms: C_6  and  C_16 
REMARK   10  A    between atoms: C_7  and  C_23 
REMARK   11  A    between atoms: C_9  and  C_17 
REMARK   12  A    between atoms: C_9  and  C_18 
REMARK   13  A    between atoms: C_14  and  C_19 
REMARK   14  A    between atoms: C_14  and  C_20 
REMARK   15  A    between atoms: C_21  and  C_22 
ROOT
HETATM    1  O   UNL     1       8.137 -12.696  -9.293  1.00  0.00    -0.776 OA
HETATM    2  H   UNL     1       8.481 -11.957  -8.773  1.00  0.00     0.167 HD
ENDROOT
BRANCH   1   3
HETATM    3  C   UNL     1       7.918 -12.580 -10.621  1.00  0.00     0.139 C 
HETATM    4  O   UNL     1       6.808 -12.807 -11.080  1.00  0.00    -0.650 OA
BRANCH   3   5
HETATM    5  C   UNL     1       9.041 -12.169 -11.529  1.00  0.00     0.113 C 
BRANCH   5   6
HETATM    6  C   UNL     1       8.982 -12.937 -12.855  1.00  0.00     0.037 C 
BRANCH   6   7
HETATM    7  C   UNL     1       9.303 -12.024 -14.014  1.00  0.00    -0.030 C 
HETATM    8  C   UNL     1      10.313 -12.160 -14.899  1.00  0.00    -0.027 C 
BRANCH   8   9
HETATM    9  C   UNL     1      11.360 -13.253 -14.943  1.00  0.00     0.053 C 
BRANCH   9  10
HETATM   10  C   UNL     1      11.442 -13.862 -16.319  1.00  0.00    -0.027 C 
HETATM   11  C   UNL     1      10.880 -15.024 -16.699  1.00  0.00    -0.027 C 
BRANCH  11  12
HETATM   12  C   UNL     1      10.016 -15.901 -15.831  1.00  0.00     0.053 C 
BRANCH  12  13
HETATM   13  C   UNL     1      10.853 -16.908 -15.081  1.00  0.00    -0.027 C 
HETATM   14  C   UNL     1      11.123 -16.903 -13.762  1.00  0.00    -0.027 C 
BRANCH  14  15
HETATM   15  C   UNL     1      10.684 -15.859 -12.770  1.00  0.00     0.053 C 
BRANCH  15  16
HETATM   16  C   UNL     1      10.056 -16.557 -11.584  1.00  0.00    -0.027 C 
HETATM   17  C   UNL     1      10.536 -16.649 -10.327  1.00  0.00    -0.027 C 
BRANCH  17  18
HETATM   18  C   UNL     1      11.815 -16.056  -9.796  1.00  0.00     0.053 C 
BRANCH  18  19
HETATM   19  C   UNL     1      11.642 -14.581  -9.514  1.00  0.00    -0.027 C 
HETATM   20  C   UNL     1      11.274 -14.006  -8.351  1.00  0.00    -0.027 C 
BRANCH  20  21
HETATM   21  C   UNL     1      11.002 -14.699  -7.039  1.00  0.00     0.053 C 
BRANCH  21  22
HETATM   22  C   UNL     1      11.259 -13.769  -5.876  1.00  0.00    -0.027 C 
HETATM   23  C   UNL     1      10.433 -12.821  -5.392  1.00  0.00    -0.031 C 
BRANCH  23  24
HETATM   24  C   UNL     1       9.068 -12.465  -5.921  1.00  0.00     0.022 C 
HETATM   25  C   UNL     1       7.970 -13.348  -5.341  1.00  0.00     0.009 C 
ENDBRANCH  23  24
ENDBRANCH  21  22
ENDBRANCH  20  21
ENDBRANCH  18  19
ENDBRANCH  17  18
ENDBRANCH  15  16
ENDBRANCH  14  15
ENDBRANCH  12  13
ENDBRANCH  11  12
ENDBRANCH   9  10
ENDBRANCH   8   9
ENDBRANCH   6   7
ENDBRANCH   5   6
ENDBRANCH   3   5
ENDBRANCH   1   3
TORSDOF 15
ENDMDL
MODEL 6
REMARK VINA RESULT:      -3.7      3.364      5.679
REMARK  15 active torsions:
REMARK  status: ('A' for Active; 'I' for Inactive)
REMARK    1  A    between atoms: O_1  and  C_23 
REMARK    2  A    between atoms: C_3  and  C_7 
REMARK    3  A    between atoms: C_3  and  C_8 
REMARK    4  A    between atoms: C_4  and  C_10 
REMARK    5  A    between atoms: C_4  and  C_11 
REMARK    6  A    between atoms: C_5  and  C_12 
REMARK    7  A    between atoms: C_5  and  C_13 
REMARK    8  A    between atoms: C_6  and  C_15 
REMARK    9  A    between atoms: C_6  and  C_16 
REMARK   10  A    between atoms: C_7  and  C_23 
REMARK   11  A    between atoms: C_9  and  C_17 
REMARK   12  A    between atoms: C_9  and  C_18 
REMARK   13  A    between atoms: C_14  and  C_19 
REMARK   14  A    between atoms: C_14  and  C_20 
REMARK   15  A    between atoms: C_21  and  C_22 
ROOT
HETATM    1  O   UNL     1      13.267 -13.326  -4.767  1.00  0.00    -0.776 OA
HETATM    2  H   UNL     1      13.902 -14.030  -4.956  1.00  0.00     0.167 HD
ENDROOT
BRANCH   1   3
HETATM    3  C   UNL     1      11.990 -13.396  -5.199  1.00  0.00     0.139 C 
HETATM    4  O   UNL     1      11.092 -12.886  -4.544  1.00  0.00    -0.650 OA
BRANCH   3   5
HETATM    5  C   UNL     1      11.677 -14.097  -6.490  1.00  0.00     0.113 C 
BRANCH   5   6
HETATM    6  C   UNL     1      10.564 -15.133  -6.294  1.00  0.00     0.037 C 
BRANCH   6   7
HETATM    7  C   UNL     1      11.060 -16.298  -5.471  1.00  0.00    -0.030 C 
HETATM    8  C   UNL     1      11.483 -17.495  -5.929  1.00  0.00    -0.027 C 
BRANCH   8   9
HETATM    9  C   UNL     1      11.561 -17.955  -7.369  1.00  0.00     0.053 C 
BRANCH   9  10
HETATM   10  C   UNL     1      11.271 -19.430  -7.478  1.00  0.00    -0.027 C 
HETATM   11  C   UNL     1      10.537 -20.017  -8.440  1.00  0.00    -0.027 C 
BRANCH  11  12
HETATM   12  C   UNL     1       9.918 -19.314  -9.620  1.00  0.00     0.053 C 
BRANCH  12  13
HETATM   13  C   UNL     1       8.455 -19.039  -9.376  1.00  0.00    -0.027 C 
HETATM   14  C   UNL     1       7.885 -17.834  -9.187  1.00  0.00    -0.027 C 
BRANCH  14  15
HETATM   15  C   UNL     1       8.603 -16.512  -9.132  1.00  0.00     0.053 C 
BRANCH  15  16
HETATM   16  C   UNL     1       9.045 -16.146 -10.531  1.00  0.00    -0.027 C 
HETATM   17  C   UNL     1      10.261 -15.723 -10.932  1.00  0.00    -0.027 C 
BRANCH  17  18
HETATM   18  C   UNL     1      11.485 -15.531 -10.075  1.00  0.00     0.053 C 
BRANCH  18  19
HETATM   19  C   UNL     1      12.078 -14.159 -10.293  1.00  0.00    -0.027 C 
HETATM   20  C   UNL     1      11.515 -12.966 -10.009  1.00  0.00    -0.027 C 
BRANCH  20  21
HETATM   21  C   UNL     1      10.178 -12.725  -9.354  1.00  0.00     0.053 C 
BRANCH  21  22
HETATM   22  C   UNL     1       9.492 -11.523  -9.959  1.00  0.00    -0.027 C 
HETATM   23  C   UNL     1       8.685 -11.503 -11.039  1.00  0.00    -0.031 C 
BRANCH  23  24
HETATM   24  C   UNL     1       8.304 -12.682 -11.896  1.00  0.00     0.022 C 
HETATM   25  C   UNL     1       9.234 -12.861 -13.088  1.00  0.00     0.009 C 
ENDBRANCH  23  24
ENDBRANCH  21  22
ENDBRANCH  20  21
ENDBRANCH  18  19
ENDBRANCH  17  18
ENDBRANCH  15  16
ENDBRANCH  14  15
ENDBRANCH  12  13
ENDBRANCH  11  12
ENDBRANCH   9  10
ENDBRANCH   8   9
ENDBRANCH   6   7
ENDBRANCH   5   6
ENDBRANCH   3   5
ENDBRANCH   1   3
TORSDOF 15
ENDMDL
MODEL 7
REMARK VINA RESULT:      -3.6      4.059      8.435
REMARK  15 active torsions:
REMARK  status: ('A' for Active; 'I' for Inactive)
REMARK    1  A    between atoms: O_1  and  C_23 
REMARK    2  A    between atoms: C_3  and  C_7 
REMARK    3  A    between atoms: C_3  and  C_8 
REMARK    4  A    between atoms: C_4  and  C_10 
REMARK    5  A    between atoms: C_4  and  C_11 
REMARK    6  A    between atoms: C_5  and  C_12 
REMARK    7  A    between atoms: C_5  and  C_13 
REMARK    8  A    between atoms: C_6  and  C_15 
REMARK    9  A    between atoms: C_6  and  C_16 
REMARK   10  A    between atoms: C_7  and  C_23 
REMARK   11  A    between atoms: C_9  and  C_17 
REMARK   12  A    between atoms: C_9  and  C_18 
REMARK   13  A    between atoms: C_14  and  C_19 
REMARK   14  A    between atoms: C_14  and  C_20 
REMARK   15  A    between atoms: C_21  and  C_22 
ROOT
HETATM    1  O   UNL     1      14.158 -20.055  -9.617  1.00  0.00    -0.776 OA
HETATM    2  H   UNL     1      14.541 -19.532 -10.335  1.00  0.00     0.167 HD
ENDROOT
BRANCH   1   3
HETATM    3  C   UNL     1      12.906 -19.823  -9.168  1.00  0.00     0.139 C 
HETATM    4  O   UNL     1      12.128 -20.754  -9.015  1.00  0.00    -0.650 OA
BRANCH   3   5
HETATM    5  C   UNL     1      12.474 -18.419  -8.854  1.00  0.00     0.113 C 
BRANCH   5   6
HETATM    6  C   UNL     1      11.155 -18.414  -8.072  1.00  0.00     0.037 C 
BRANCH   6   7
HETATM    7  C   UNL     1      10.854 -17.032  -7.545  1.00  0.00    -0.030 C 
HETATM    8  C   UNL     1      10.562 -15.931  -8.271  1.00  0.00    -0.027 C 
BRANCH   8   9
HETATM    9  C   UNL     1      10.468 -15.820  -9.777  1.00  0.00     0.053 C 
BRANCH   9  10
HETATM   10  C   UNL     1      11.459 -14.813 -10.304  1.00  0.00    -0.027 C 
HETATM   11  C   UNL     1      11.231 -13.930 -11.293  1.00  0.00    -0.027 C 
BRANCH  11  12
HETATM   12  C   UNL     1       9.922 -13.746 -12.017  1.00  0.00     0.053 C 
BRANCH  12  13
HETATM   13  C   UNL     1       9.349 -12.376 -11.753  1.00  0.00    -0.027 C 
HETATM   14  C   UNL     1       8.663 -11.989 -10.662  1.00  0.00    -0.027 C 
BRANCH  14  15
HETATM   15  C   UNL     1       8.283 -12.863  -9.497  1.00  0.00     0.053 C 
BRANCH  15  16
HETATM   16  C   UNL     1       9.185 -12.528  -8.330  1.00  0.00    -0.027 C 
HETATM   17  C   UNL     1       8.910 -12.630  -7.014  1.00  0.00    -0.027 C 
BRANCH  17  18
HETATM   18  C   UNL     1       7.633 -13.124  -6.387  1.00  0.00     0.053 C 
BRANCH  18  19
HETATM   19  C   UNL     1       7.513 -14.623  -6.532  1.00  0.00    -0.027 C 
HETATM   20  C   UNL     1       7.865 -15.566  -5.634  1.00  0.00    -0.027 C 
BRANCH  20  21
HETATM   21  C   UNL     1       8.413 -15.340  -4.247  1.00  0.00     0.053 C 
BRANCH  21  22
HETATM   22  C   UNL     1       9.757 -16.011  -4.083  1.00  0.00    -0.027 C 
HETATM   23  C   UNL     1      10.971 -15.432  -4.156  1.00  0.00    -0.031 C 
BRANCH  23  24
HETATM   24  C   UNL     1      11.257 -13.980  -4.437  1.00  0.00     0.022 C 
HETATM   25  C   UNL     1      12.149 -13.787  -5.657  1.00  0.00     0.009 C 
ENDBRANCH  23  24
ENDBRANCH  21  22
ENDBRANCH  20  21
ENDBRANCH  18  19
ENDBRANCH  17  18
ENDBRANCH  15  16
ENDBRANCH  14  15
ENDBRANCH  12  13
ENDBRANCH  11  12
ENDBRANCH   9  10
ENDBRANCH   8   9
ENDBRANCH   6   7
ENDBRANCH   5   6
ENDBRANCH   3   5
ENDBRANCH   1   3
TORSDOF 15
ENDMDL
MODEL 8
REMARK VINA RESULT:      -3.6      3.528      6.536
REMARK  15 active torsions:
REMARK  status: ('A' for Active; 'I' for Inactive)
REMARK    1  A    between atoms: O_1  and  C_23 
REMARK    2  A    between atoms: C_3  and  C_7 
REMARK    3  A    between atoms: C_3  and  C_8 
REMARK    4  A    between atoms: C_4  and  C_10 
REMARK    5  A    between atoms: C_4  and  C_11 
REMARK    6  A    between atoms: C_5  and  C_12 
REMARK    7  A    between atoms: C_5  and  C_13 
REMARK    8  A    between atoms: C_6  and  C_15 
REMARK    9  A    between atoms: C_6  and  C_16 
REMARK   10  A    between atoms: C_7  and  C_23 
REMARK   11  A    between atoms: C_9  and  C_17 
REMARK   12  A    between atoms: C_9  and  C_18 
REMARK   13  A    between atoms: C_14  and  C_19 
REMARK   14  A    between atoms: C_14  and  C_20 
REMARK   15  A    between atoms: C_21  and  C_22 
ROOT
HETATM    1  O   UNL     1       4.402 -17.295 -15.149  1.00  0.00    -0.776 OA
HETATM    2  H   UNL     1       3.593 -17.797 -15.318  1.00  0.00     0.167 HD
ENDROOT
BRANCH   1   3
HETATM    3  C   UNL     1       5.228 -16.931 -16.153  1.00  0.00     0.139 C 
HETATM    4  O   UNL     1       4.825 -16.931 -17.308  1.00  0.00    -0.650 OA
BRANCH   3   5
HETATM    5  C   UNL     1       6.641 -16.523 -15.847  1.00  0.00     0.113 C 
BRANCH   5   6
HETATM    6  C   UNL     1       6.788 -14.997 -15.875  1.00  0.00     0.037 C 
BRANCH   6   7
HETATM    7  C   UNL     1       7.872 -14.585 -16.841  1.00  0.00    -0.030 C 
HETATM    8  C   UNL     1       8.463 -13.374 -16.931  1.00  0.00    -0.027 C 
BRANCH   8   9
HETATM    9  C   UNL     1       8.182 -12.147 -16.090  1.00  0.00     0.053 C 
BRANCH   9  10
HETATM   10  C   UNL     1       9.398 -11.755 -15.289  1.00  0.00    -0.027 C 
HETATM   11  C   UNL     1       9.566 -11.952 -13.969  1.00  0.00    -0.027 C 
BRANCH  11  12
HETATM   12  C   UNL     1       8.592 -12.653 -13.059  1.00  0.00     0.053 C 
BRANCH  12  13
HETATM   13  C   UNL     1       8.630 -12.061 -11.672  1.00  0.00    -0.027 C 
HETATM   14  C   UNL     1       9.445 -12.427 -10.665  1.00  0.00    -0.027 C 
BRANCH  14  15
HETATM   15  C   UNL     1      10.458 -13.540 -10.704  1.00  0.00     0.053 C 
BRANCH  15  16
HETATM   16  C   UNL     1       9.817 -14.793 -10.150  1.00  0.00    -0.027 C 
HETATM   17  C   UNL     1      10.386 -16.000  -9.956  1.00  0.00    -0.027 C 
BRANCH  17  18
HETATM   18  C   UNL     1      11.816 -16.385 -10.232  1.00  0.00     0.053 C 
BRANCH  18  19
HETATM   19  C   UNL     1      11.948 -17.884 -10.362  1.00  0.00    -0.027 C 
HETATM   20  C   UNL     1      11.911 -18.616 -11.495  1.00  0.00    -0.027 C 
BRANCH  20  21
HETATM   21  C   UNL     1      11.782 -18.101 -12.907  1.00  0.00     0.053 C 
BRANCH  21  22
HETATM   22  C   UNL     1      10.353 -17.716 -13.211  1.00  0.00    -0.027 C 
HETATM   23  C   UNL     1       9.909 -16.531 -13.674  1.00  0.00    -0.031 C 
BRANCH  23  24
HETATM   24  C   UNL     1      10.746 -15.315 -13.974  1.00  0.00     0.022 C 
HETATM   25  C   UNL     1      11.322 -15.338 -15.384  1.00  0.00     0.009 C 
ENDBRANCH  23  24
ENDBRANCH  21  22
ENDBRANCH  20  21
ENDBRANCH  18  19
ENDBRANCH  17  18
ENDBRANCH  15  16
ENDBRANCH  14  15
ENDBRANCH  12  13
ENDBRANCH  11  12
ENDBRANCH   9  10
ENDBRANCH   8   9
ENDBRANCH   6   7
ENDBRANCH   5   6
ENDBRANCH   3   5
ENDBRANCH   1   3
TORSDOF 15
ENDMDL
MODEL 9
REMARK VINA RESULT:      -3.6      4.205      7.393
REMARK  15 active torsions:
REMARK  status: ('A' for Active; 'I' for Inactive)
REMARK    1  A    between atoms: O_1  and  C_23 
REMARK    2  A    between atoms: C_3  and  C_7 
REMARK    3  A    between atoms: C_3  and  C_8 
REMARK    4  A    between atoms: C_4  and  C_10 
REMARK    5  A    between atoms: C_4  and  C_11 
REMARK    6  A    between atoms: C_5  and  C_12 
REMARK    7  A    between atoms: C_5  and  C_13 
REMARK    8  A    between atoms: C_6  and  C_15 
REMARK    9  A    between atoms: C_6  and  C_16 
REMARK   10  A    between atoms: C_7  and  C_23 
REMARK   11  A    between atoms: C_9  and  C_17 
REMARK   12  A    between atoms: C_9  and  C_18 
REMARK   13  A    between atoms: C_14  and  C_19 
REMARK   14  A    between atoms: C_14  and  C_20 
REMARK   15  A    between atoms: C_21  and  C_22 
ROOT
HETATM    1  O   UNL     1       8.834 -10.539 -15.976  1.00  0.00    -0.776 OA
HETATM    2  H   UNL     1       9.003  -9.757 -15.433  1.00  0.00     0.167 HD
ENDROOT
BRANCH   1   3
HETATM    3  C   UNL     1       8.806 -11.777 -15.437  1.00  0.00     0.139 C 
HETATM    4  O   UNL     1       9.507 -12.040 -14.471  1.00  0.00    -0.650 OA
BRANCH   3   5
HETATM    5  C   UNL     1       7.908 -12.827 -16.027  1.00  0.00     0.113 C 
BRANCH   5   6
HETATM    6  C   UNL     1       8.720 -13.858 -16.820  1.00  0.00     0.037 C 
BRANCH   6   7
HETATM    7  C   UNL     1       8.754 -15.181 -16.093  1.00  0.00    -0.030 C 
HETATM    8  C   UNL     1       8.032 -16.285 -16.382  1.00  0.00    -0.027 C 
BRANCH   8   9
HETATM    9  C   UNL     1       7.022 -16.460 -17.495  1.00  0.00     0.053 C 
BRANCH   9  10
HETATM   10  C   UNL     1       7.636 -17.179 -18.669  1.00  0.00    -0.027 C 
HETATM   11  C   UNL     1       7.799 -16.671 -19.904  1.00  0.00    -0.027 C 
BRANCH  11  12
HETATM   12  C   UNL     1       7.449 -15.267 -20.324  1.00  0.00     0.053 C 
BRANCH  12  13
HETATM   13  C   UNL     1       7.035 -15.227 -21.774  1.00  0.00    -0.027 C 
HETATM   14  C   UNL     1       7.755 -14.739 -22.802  1.00  0.00    -0.027 C 
BRANCH  14  15
HETATM   15  C   UNL     1       9.107 -14.085 -22.705  1.00  0.00     0.053 C 
BRANCH  15  16
HETATM   16  C   UNL     1       8.913 -12.587 -22.620  1.00  0.00    -0.027 C 
HETATM   17  C   UNL     1       8.859 -11.820 -21.512  1.00  0.00    -0.027 C 
BRANCH  17  18
HETATM   18  C   UNL     1       9.002 -12.275 -20.084  1.00  0.00     0.053 C 
BRANCH  18  19
HETATM   19  C   UNL     1      10.448 -12.226 -19.650  1.00  0.00    -0.027 C 
HETATM   20  C   UNL     1      11.336 -13.241 -19.634  1.00  0.00    -0.027 C 
BRANCH  20  21
HETATM   21  C   UNL     1      11.105 -14.658 -20.099  1.00  0.00     0.053 C 
BRANCH  21  22
HETATM   22  C   UNL     1      11.081 -15.612 -18.927  1.00  0.00    -0.027 C 
HETATM   23  C   UNL     1      11.566 -16.868 -18.888  1.00  0.00    -0.031 C 
BRANCH  23  24
HETATM   24  C   UNL     1      12.227 -17.610 -20.020  1.00  0.00     0.022 C 
HETATM   25  C   UNL     1      12.965 -18.856 -19.549  1.00  0.00     0.009 C 
ENDBRANCH  23  24
ENDBRANCH  21  22
ENDBRANCH  20  21
ENDBRANCH  18  19
ENDBRANCH  17  18
ENDBRANCH  15  16
ENDBRANCH  14  15
ENDBRANCH  12  13
ENDBRANCH  11  12
ENDBRANCH   9  10
ENDBRANCH   8   9
ENDBRANCH   6   7
ENDBRANCH   5   6
ENDBRANCH   3   5
ENDBRANCH   1   3
TORSDOF 15
ENDMDL
MODEL 10
REMARK VINA RESULT:      -3.5      2.205      4.928
REMARK  15 active torsions:
REMARK  status: ('A' for Active; 'I' for Inactive)
REMARK    1  A    between atoms: O_1  and  C_23 
REMARK    2  A    between atoms: C_3  and  C_7 
REMARK    3  A    between atoms: C_3  and  C_8 
REMARK    4  A    between atoms: C_4  and  C_10 
REMARK    5  A    between atoms: C_4  and  C_11 
REMARK    6  A    between atoms: C_5  and  C_12 
REMARK    7  A    between atoms: C_5  and  C_13 
REMARK    8  A    between atoms: C_6  and  C_15 
REMARK    9  A    between atoms: C_6  and  C_16 
REMARK   10  A    between atoms: C_7  and  C_23 
REMARK   11  A    between atoms: C_9  and  C_17 
REMARK   12  A    between atoms: C_9  and  C_18 
REMARK   13  A    between atoms: C_14  and  C_19 
REMARK   14  A    between atoms: C_14  and  C_20 
REMARK   15  A    between atoms: C_21  and  C_22 
ROOT
HETATM    1  O   UNL     1       7.278 -12.495 -10.447  1.00  0.00    -0.776 OA
HETATM    2  H   UNL     1       7.136 -11.542 -10.530  1.00  0.00     0.167 HD
ENDROOT
BRANCH   1   3
HETATM    3  C   UNL     1       8.254 -12.995  -9.659  1.00  0.00     0.139 C 
HETATM    4  O   UNL     1       8.075 -14.040  -9.050  1.00  0.00    -0.650 OA
BRANCH   3   5
HETATM    5  C   UNL     1       9.561 -12.265  -9.536  1.00  0.00     0.113 C 
BRANCH   5   6
HETATM    6  C   UNL     1      10.641 -13.172  -8.937  1.00  0.00     0.037 C 
BRANCH   6   7
HETATM    7  C   UNL     1      11.817 -13.293  -9.876  1.00  0.00    -0.030 C 
HETATM    8  C   UNL     1      11.948 -14.154 -10.908  1.00  0.00    -0.027 C 
BRANCH   8   9
HETATM    9  C   UNL     1      10.954 -15.199 -11.368  1.00  0.00     0.053 C 
BRANCH   9  10
HETATM   10  C   UNL     1      10.965 -15.325 -12.870  1.00  0.00    -0.027 C 
HETATM   11  C   UNL     1      10.030 -14.840 -13.706  1.00  0.00    -0.027 C 
BRANCH  11  12
HETATM   12  C   UNL     1       8.828 -14.029 -13.297  1.00  0.00     0.053 C 
BRANCH  12  13
HETATM   13  C   UNL     1       9.160 -12.558 -13.259  1.00  0.00    -0.027 C 
HETATM   14  C   UNL     1       9.441 -11.770 -14.313  1.00  0.00    -0.027 C 
BRANCH  14  15
HETATM   15  C   UNL     1       9.531 -12.210 -15.750  1.00  0.00     0.053 C 
BRANCH  15  16
HETATM   16  C   UNL     1       8.128 -12.350 -16.299  1.00  0.00    -0.027 C 
HETATM   17  C   UNL     1       7.528 -13.463 -16.767  1.00  0.00    -0.027 C 
BRANCH  17  18
HETATM   18  C   UNL     1       8.112 -14.850 -16.837  1.00  0.00     0.053 C 
BRANCH  18  19
HETATM   19  C   UNL     1       9.093 -14.958 -17.982  1.00  0.00    -0.027 C 
HETATM   20  C   UNL     1      10.206 -15.716 -18.040  1.00  0.00    -0.027 C 
BRANCH  20  21
HETATM   21  C   UNL     1      10.706 -16.681 -16.993  1.00  0.00     0.053 C 
BRANCH  21  22
HETATM   22  C   UNL     1      11.410 -17.854 -17.634  1.00  0.00    -0.027 C 
HETATM   23  C   UNL     1      11.994 -18.895 -17.009  1.00  0.00    -0.031 C 
BRANCH  23  24
HETATM   24  C   UNL     1      12.090 -19.109 -15.521  1.00  0.00     0.022 C 
HETATM   25  C   UNL     1      13.218 -18.304 -14.887  1.00  0.00     0.009 C 
ENDBRANCH  23  24
ENDBRANCH  21  22
ENDBRANCH  20  21
ENDBRANCH  18  19
ENDBRANCH  17  18
ENDBRANCH  15  16
ENDBRANCH  14  15
ENDBRANCH  12  13
ENDBRANCH  11  12
ENDBRANCH   9  10
ENDBRANCH   8   9
ENDBRANCH   6   7
ENDBRANCH   5   6
ENDBRANCH   3   5
ENDBRANCH   1   3
TORSDOF 15
ENDMDL
MODEL 11
REMARK VINA RESULT:      -3.5      4.227      6.801
REMARK  15 active torsions:
REMARK  status: ('A' for Active; 'I' for Inactive)
REMARK    1  A    between atoms: O_1  and  C_23 
REMARK    2  A    between atoms: C_3  and  C_7 
REMARK    3  A    between atoms: C_3  and  C_8 
REMARK    4  A    between atoms: C_4  and  C_10 
REMARK    5  A    between atoms: C_4  and  C_11 
REMARK    6  A    between atoms: C_5  and  C_12 
REMARK    7  A    between atoms: C_5  and  C_13 
REMARK    8  A    between atoms: C_6  and  C_15 
REMARK    9  A    between atoms: C_6  and  C_16 
REMARK   10  A    between atoms: C_7  and  C_23 
REMARK   11  A    between atoms: C_9  and  C_17 
REMARK   12  A    between atoms: C_9  and  C_18 
REMARK   13  A    between atoms: C_14  and  C_19 
REMARK   14  A    between atoms: C_14  and  C_20 
REMARK   15  A    between atoms: C_21  and  C_22 
ROOT
HETATM    1  O   UNL     1       5.139 -19.132 -17.065  1.00  0.00    -0.776 OA
HETATM    2  H   UNL     1       5.243 -19.540 -16.194  1.00  0.00     0.167 HD
ENDROOT
BRANCH   1   3
HETATM    3  C   UNL     1       5.078 -17.791 -17.211  1.00  0.00     0.139 C 
HETATM    4  O   UNL     1       4.613 -17.307 -18.233  1.00  0.00    -0.650 OA
BRANCH   3   5
HETATM    5  C   UNL     1       5.581 -16.897 -16.113  1.00  0.00     0.113 C 
BRANCH   5   6
HETATM    6  C   UNL     1       6.484 -15.794 -16.676  1.00  0.00     0.037 C 
BRANCH   6   7
HETATM    7  C   UNL     1       7.848 -16.345 -17.017  1.00  0.00    -0.030 C 
HETATM    8  C   UNL     1       8.944 -16.345 -16.228  1.00  0.00    -0.027 C 
BRANCH   8   9
HETATM    9  C   UNL     1       9.068 -15.798 -14.822  1.00  0.00     0.053 C 
BRANCH   9  10
HETATM   10  C   UNL     1      10.442 -15.222 -14.590  1.00  0.00    -0.027 C 
HETATM   11  C   UNL     1      10.708 -13.996 -14.105  1.00  0.00    -0.027 C 
BRANCH  11  12
HETATM   12  C   UNL     1       9.679 -12.994 -13.650  1.00  0.00     0.053 C 
BRANCH  12  13
HETATM   13  C   UNL     1       9.719 -11.754 -14.508  1.00  0.00    -0.027 C 
HETATM   14  C   UNL     1       9.073 -11.563 -15.674  1.00  0.00    -0.027 C 
BRANCH  14  15
HETATM   15  C   UNL     1       8.212 -12.572 -16.386  1.00  0.00     0.053 C 
BRANCH  15  16
HETATM   16  C   UNL     1       8.501 -12.489 -17.869  1.00  0.00    -0.027 C 
HETATM   17  C   UNL     1       9.570 -12.972 -18.534  1.00  0.00    -0.027 C 
BRANCH  17  18
HETATM   18  C   UNL     1      10.733 -13.734 -17.955  1.00  0.00     0.053 C 
BRANCH  18  19
HETATM   19  C   UNL     1      11.857 -13.835 -18.959  1.00  0.00    -0.027 C 
HETATM   20  C   UNL     1      12.094 -14.840 -19.827  1.00  0.00    -0.027 C 
BRANCH  20  21
HETATM   21  C   UNL     1      11.257 -16.078 -20.037  1.00  0.00     0.053 C 
BRANCH  21  22
HETATM   22  C   UNL     1      10.558 -16.034 -21.376  1.00  0.00    -0.027 C 
HETATM   23  C   UNL     1       9.248 -15.821 -21.605  1.00  0.00    -0.031 C 
BRANCH  23  24
HETATM   24  C   UNL     1       8.180 -15.595 -20.567  1.00  0.00     0.022 C 
HETATM   25  C   UNL     1       7.194 -14.507 -20.971  1.00  0.00     0.009 C 
ENDBRANCH  23  24
ENDBRANCH  21  22
ENDBRANCH  20  21
ENDBRANCH  18  19
ENDBRANCH  17  18
ENDBRANCH  15  16
ENDBRANCH  14  15
ENDBRANCH  12  13
ENDBRANCH  11  12
ENDBRANCH   9  10
ENDBRANCH   8   9
ENDBRANCH   6   7
ENDBRANCH   5   6
ENDBRANCH   3   5
ENDBRANCH   1   3
TORSDOF 15
ENDMDL
MODEL 12
REMARK VINA RESULT:      -3.5      3.313      5.516
REMARK  15 active torsions:
REMARK  status: ('A' for Active; 'I' for Inactive)
REMARK    1  A    between atoms: O_1  and  C_23 
REMARK    2  A    between atoms: C_3  and  C_7 
REMARK    3  A    between atoms: C_3  and  C_8 
REMARK    4  A    between atoms: C_4  and  C_10 
REMARK    5  A    between atoms: C_4  and  C_11 
REMARK    6  A    between atoms: C_5  and  C_12 
REMARK    7  A    between atoms: C_5  and  C_13 
REMARK    8  A    between atoms: C_6  and  C_15 
REMARK    9  A    between atoms: C_6  and  C_16 
REMARK   10  A    between atoms: C_7  and  C_23 
REMARK   11  A    between atoms: C_9  and  C_17 
REMARK   12  A    between atoms: C_9  and  C_18 
REMARK   13  A    between atoms: C_14  and  C_19 
REMARK   14  A    between atoms: C_14  and  C_20 
REMARK   15  A    between atoms: C_21  and  C_22 
ROOT
HETATM    1  O   UNL     1       5.210 -16.909 -15.869  1.00  0.00    -0.776 OA
HETATM    2  H   UNL     1       4.719 -16.489 -15.149  1.00  0.00     0.167 HD
ENDROOT
BRANCH   1   3
HETATM    3  C   UNL     1       6.380 -16.401 -16.312  1.00  0.00     0.139 C 
HETATM    4  O   UNL     1       6.691 -16.518 -17.489  1.00  0.00    -0.650 OA
BRANCH   3   5
HETATM    5  C   UNL     1       7.295 -15.691 -15.356  1.00  0.00     0.113 C 
BRANCH   5   6
HETATM    6  C   UNL     1       7.825 -16.654 -14.287  1.00  0.00     0.037 C 
BRANCH   6   7
HETATM    7  C   UNL     1       7.262 -16.306 -12.930  1.00  0.00    -0.030 C 
HETATM    8  C   UNL     1       7.914 -16.336 -11.749  1.00  0.00    -0.027 C 
BRANCH   8   9
HETATM    9  C   UNL     1       9.356 -16.722 -11.501  1.00  0.00     0.053 C 
BRANCH   9  10
HETATM   10  C   UNL     1       9.831 -16.201 -10.169  1.00  0.00    -0.027 C 
HETATM   11  C   UNL     1      10.496 -15.049  -9.968  1.00  0.00    -0.027 C 
BRANCH  11  12
HETATM   12  C   UNL     1      10.838 -14.040 -11.033  1.00  0.00     0.053 C 
BRANCH  12  13
HETATM   13  C   UNL     1       9.926 -12.842 -10.952  1.00  0.00    -0.027 C 
HETATM   14  C   UNL     1       9.041 -12.442 -11.884  1.00  0.00    -0.027 C 
BRANCH  14  15
HETATM   15  C   UNL     1       8.816 -13.085 -13.227  1.00  0.00     0.053 C 
BRANCH  15  16
HETATM   16  C   UNL     1       8.966 -12.027 -14.298  1.00  0.00    -0.027 C 
HETATM   17  C   UNL     1       9.559 -12.146 -15.503  1.00  0.00    -0.027 C 
BRANCH  17  18
HETATM   18  C   UNL     1      10.202 -13.378 -16.082  1.00  0.00     0.053 C 
BRANCH  18  19
HETATM   19  C   UNL     1      11.610 -13.541 -15.558  1.00  0.00    -0.027 C 
HETATM   20  C   UNL     1      12.077 -14.513 -14.747  1.00  0.00    -0.027 C 
BRANCH  20  21
HETATM   21  C   UNL     1      11.312 -15.699 -14.215  1.00  0.00     0.053 C 
BRANCH  21  22
HETATM   22  C   UNL     1      11.801 -16.982 -14.847  1.00  0.00    -0.027 C 
HETATM   23  C   UNL     1      11.441 -17.491 -16.042  1.00  0.00    -0.031 C 
BRANCH  23  24
HETATM   24  C   UNL     1      10.449 -16.897 -17.008  1.00  0.00     0.022 C 
HETATM   25  C   UNL     1      11.011 -16.777 -18.419  1.00  0.00     0.009 C 
ENDBRANCH  23  24
ENDBRANCH  21  22
ENDBRANCH  20  21
ENDBRANCH  18  19
ENDBRANCH  17  18
ENDBRANCH  15  16
ENDBRANCH  14  15
ENDBRANCH  12  13
ENDBRANCH  11  12
ENDBRANCH   9  10
ENDBRANCH   8   9
ENDBRANCH   6   7
ENDBRANCH   5   6
ENDBRANCH   3   5
ENDBRANCH   1   3
TORSDOF 15
ENDMDL
MODEL 13
REMARK VINA RESULT:      -3.5     11.851     13.736
REMARK  15 active torsions:
REMARK  status: ('A' for Active; 'I' for Inactive)
REMARK    1  A    between atoms: O_1  and  C_23 
REMARK    2  A    between atoms: C_3  and  C_7 
REMARK    3  A    between atoms: C_3  and  C_8 
REMARK    4  A    between atoms: C_4  and  C_10 
REMARK    5  A    between atoms: C_4  and  C_11 
REMARK    6  A    between atoms: C_5  and  C_12 
REMARK    7  A    between atoms: C_5  and  C_13 
REMARK    8  A    between atoms: C_6  and  C_15 
REMARK    9  A    between atoms: C_6  and  C_16 
REMARK   10  A    between atoms: C_7  and  C_23 
REMARK   11  A    between atoms: C_9  and  C_17 
REMARK   12  A    between atoms: C_9  and  C_18 
REMARK   13  A    between atoms: C_14  and  C_19 
REMARK   14  A    between atoms: C_14  and  C_20 
REMARK   15  A    between atoms: C_21  and  C_22 
ROOT
HETATM    1  O   UNL     1      16.709 -25.557  -9.081  1.00  0.00    -0.776 OA
HETATM    2  H   UNL     1      16.954 -26.093  -9.847  1.00  0.00     0.167 HD
ENDROOT
BRANCH   1   3
HETATM    3  C   UNL     1      15.446 -25.549  -8.602  1.00  0.00     0.139 C 
HETATM    4  O   UNL     1      15.211 -25.994  -7.487  1.00  0.00    -0.650 OA
BRANCH   3   5
HETATM    5  C   UNL     1      14.334 -24.988  -9.441  1.00  0.00     0.113 C 
BRANCH   5   6
HETATM    6  C   UNL     1      13.943 -25.965 -10.555  1.00  0.00     0.037 C 
BRANCH   6   7
HETATM    7  C   UNL     1      14.743 -25.692 -11.807  1.00  0.00    -0.030 C 
HETATM    8  C   UNL     1      14.467 -26.121 -13.057  1.00  0.00    -0.027 C 
BRANCH   8   9
HETATM    9  C   UNL     1      13.297 -26.973 -13.501  1.00  0.00     0.053 C 
BRANCH   9  10
HETATM   10  C   UNL     1      12.359 -26.181 -14.377  1.00  0.00    -0.027 C 
HETATM   11  C   UNL     1      12.465 -26.034 -15.710  1.00  0.00    -0.027 C 
BRANCH  11  12
HETATM   12  C   UNL     1      13.509 -26.683 -16.581  1.00  0.00     0.053 C 
BRANCH  12  13
HETATM   13  C   UNL     1      14.625 -25.717 -16.893  1.00  0.00    -0.027 C 
HETATM   14  C   UNL     1      15.088 -25.393 -18.115  1.00  0.00    -0.027 C 
BRANCH  14  15
HETATM   15  C   UNL     1      14.616 -25.970 -19.424  1.00  0.00     0.053 C 
BRANCH  15  16
HETATM   16  C   UNL     1      13.917 -24.880 -20.205  1.00  0.00    -0.027 C 
HETATM   17  C   UNL     1      12.639 -24.465 -20.087  1.00  0.00    -0.027 C 
BRANCH  17  18
HETATM   18  C   UNL     1      11.601 -24.981 -19.127  1.00  0.00     0.053 C 
BRANCH  18  19
HETATM   19  C   UNL     1      10.663 -25.942 -19.821  1.00  0.00    -0.027 C 
HETATM   20  C   UNL     1      10.738 -27.288 -19.845  1.00  0.00    -0.027 C 
BRANCH  20  21
HETATM   21  C   UNL     1      11.749 -28.157 -19.137  1.00  0.00     0.053 C 
BRANCH  21  22
HETATM   22  C   UNL     1      11.077 -29.026 -18.100  1.00  0.00    -0.027 C 
HETATM   23  C   UNL     1      10.568 -30.261 -18.277  1.00  0.00    -0.031 C 
BRANCH  23  24
HETATM   24  C   UNL     1      10.539 -31.043 -19.564  1.00  0.00     0.022 C 
HETATM   25  C   UNL     1      11.797 -31.878 -19.767  1.00  0.00     0.009 C 
ENDBRANCH  23  24
ENDBRANCH  21  22
ENDBRANCH  20  21
ENDBRANCH  18  19
ENDBRANCH  17  18
ENDBRANCH  15  16
ENDBRANCH  14  15
ENDBRANCH  12  13
ENDBRANCH  11  12
ENDBRANCH   9  10
ENDBRANCH   8   9
ENDBRANCH   6   7
ENDBRANCH   5   6
ENDBRANCH   3   5
ENDBRANCH   1   3
TORSDOF 15
ENDMDL
MODEL 14
REMARK VINA RESULT:      -3.5     34.522     37.474
REMARK  15 active torsions:
REMARK  status: ('A' for Active; 'I' for Inactive)
REMARK    1  A    between atoms: O_1  and  C_23 
REMARK    2  A    between atoms: C_3  and  C_7 
REMARK    3  A    between atoms: C_3  and  C_8 
REMARK    4  A    between atoms: C_4  and  C_10 
REMARK    5  A    between atoms: C_4  and  C_11 
REMARK    6  A    between atoms: C_5  and  C_12 
REMARK    7  A    between atoms: C_5  and  C_13 
REMARK    8  A    between atoms: C_6  and  C_15 
REMARK    9  A    between atoms: C_6  and  C_16 
REMARK   10  A    between atoms: C_7  and  C_23 
REMARK   11  A    between atoms: C_9  and  C_17 
REMARK   12  A    between atoms: C_9  and  C_18 
REMARK   13  A    between atoms: C_14  and  C_19 
REMARK   14  A    between atoms: C_14  and  C_20 
REMARK   15  A    between atoms: C_21  and  C_22 
ROOT
HETATM    1  O   UNL     1      48.578 -15.261 -10.671  1.00  0.00    -0.776 OA
HETATM    2  H   UNL     1      47.842 -14.991 -11.238  1.00  0.00     0.167 HD
ENDROOT
BRANCH   1   3
HETATM    3  C   UNL     1      49.053 -16.524 -10.688  1.00  0.00     0.139 C 
HETATM    4  O   UNL     1      49.594 -16.962 -11.694  1.00  0.00    -0.650 OA
BRANCH   3   5
HETATM    5  C   UNL     1      48.918 -17.389  -9.467  1.00  0.00     0.113 C 
BRANCH   5   6
HETATM    6  C   UNL     1      48.410 -18.787  -9.840  1.00  0.00     0.037 C 
BRANCH   6   7
HETATM    7  C   UNL     1      46.965 -18.953  -9.437  1.00  0.00    -0.030 C 
HETATM    8  C   UNL     1      45.876 -18.610 -10.159  1.00  0.00    -0.027 C 
BRANCH   8   9
HETATM    9  C   UNL     1      45.844 -17.982 -11.536  1.00  0.00     0.053 C 
BRANCH   9  10
HETATM   10  C   UNL     1      44.450 -18.021 -12.111  1.00  0.00    -0.027 C 
HETATM   11  C   UNL     1      43.497 -17.090 -11.925  1.00  0.00    -0.027 C 
BRANCH  11  12
HETATM   12  C   UNL     1      43.668 -15.806 -11.155  1.00  0.00     0.053 C 
BRANCH  12  13
HETATM   13  C   UNL     1      42.476 -15.550 -10.267  1.00  0.00    -0.027 C 
HETATM   14  C   UNL     1      42.290 -16.016  -9.018  1.00  0.00    -0.027 C 
BRANCH  14  15
HETATM   15  C   UNL     1      43.217 -16.935  -8.267  1.00  0.00     0.053 C 
BRANCH  15  16
HETATM   16  C   UNL     1      43.566 -16.290  -6.944  1.00  0.00    -0.027 C 
HETATM   17  C   UNL     1      44.770 -16.240  -6.338  1.00  0.00    -0.027 C 
BRANCH  17  18
HETATM   18  C   UNL     1      46.070 -16.804  -6.850  1.00  0.00     0.053 C 
BRANCH  18  19
HETATM   19  C   UNL     1      47.210 -15.852  -6.573  1.00  0.00    -0.027 C 
HETATM   20  C   UNL     1      48.358 -16.115  -5.917  1.00  0.00    -0.027 C 
BRANCH  20  21
HETATM   21  C   UNL     1      48.799 -17.442  -5.351  1.00  0.00     0.053 C 
BRANCH  21  22
HETATM   22  C   UNL     1      49.020 -17.344  -3.860  1.00  0.00    -0.027 C 
HETATM   23  C   UNL     1      48.078 -17.230  -2.902  1.00  0.00    -0.031 C 
BRANCH  23  24
HETATM   24  C   UNL     1      46.589 -17.156  -3.113  1.00  0.00     0.022 C 
HETATM   25  C   UNL     1      45.961 -18.527  -3.330  1.00  0.00     0.009 C 
ENDBRANCH  23  24
ENDBRANCH  21  22
ENDBRANCH  20  21
ENDBRANCH  18  19
ENDBRANCH  17  18
ENDBRANCH  15  16
ENDBRANCH  14  15
ENDBRANCH  12  13
ENDBRANCH  11  12
ENDBRANCH   9  10
ENDBRANCH   8   9
ENDBRANCH   6   7
ENDBRANCH   5   6
ENDBRANCH   3   5
ENDBRANCH   1   3
TORSDOF 15
ENDMDL
MODEL 15
REMARK VINA RESULT:      -3.5     36.418     38.594
REMARK  15 active torsions:
REMARK  status: ('A' for Active; 'I' for Inactive)
REMARK    1  A    between atoms: O_1  and  C_23 
REMARK    2  A    between atoms: C_3  and  C_7 
REMARK    3  A    between atoms: C_3  and  C_8 
REMARK    4  A    between atoms: C_4  and  C_10 
REMARK    5  A    between atoms: C_4  and  C_11 
REMARK    6  A    between atoms: C_5  and  C_12 
REMARK    7  A    between atoms: C_5  and  C_13 
REMARK    8  A    between atoms: C_6  and  C_15 
REMARK    9  A    between atoms: C_6  and  C_16 
REMARK   10  A    between atoms: C_7  and  C_23 
REMARK   11  A    between atoms: C_9  and  C_17 
REMARK   12  A    between atoms: C_9  and  C_18 
REMARK   13  A    between atoms: C_14  and  C_19 
REMARK   14  A    between atoms: C_14  and  C_20 
REMARK   15  A    between atoms: C_21  and  C_22 
ROOT
HETATM    1  O   UNL     1      50.369 -21.622 -13.604  1.00  0.00    -0.776 OA
HETATM    2  H   UNL     1      50.918 -22.350 -13.925  1.00  0.00     0.167 HD
ENDROOT
BRANCH   1   3
HETATM    3  C   UNL     1      50.897 -20.412 -13.322  1.00  0.00     0.139 C 
HETATM    4  O   UNL     1      52.108 -20.284 -13.210  1.00  0.00    -0.650 OA
BRANCH   3   5
HETATM    5  C   UNL     1      49.993 -19.225 -13.150  1.00  0.00     0.113 C 
BRANCH   5   6
HETATM    6  C   UNL     1      49.102 -19.032 -14.382  1.00  0.00     0.037 C 
BRANCH   6   7
HETATM    7  C   UNL     1      49.835 -18.263 -15.455  1.00  0.00    -0.030 C 
HETATM    8  C   UNL     1      49.542 -17.027 -15.911  1.00  0.00    -0.027 C 
BRANCH   8   9
HETATM    9  C   UNL     1      48.415 -16.121 -15.461  1.00  0.00     0.053 C 
BRANCH   9  10
HETATM   10  C   UNL     1      47.395 -15.948 -16.558  1.00  0.00    -0.027 C 
HETATM   11  C   UNL     1      46.306 -16.714 -16.745  1.00  0.00    -0.027 C 
BRANCH  11  12
HETATM   12  C   UNL     1      45.874 -17.851 -15.857  1.00  0.00     0.053 C 
BRANCH  12  13
HETATM   13  C   UNL     1      45.022 -18.836 -16.619  1.00  0.00    -0.027 C 
HETATM   14  C   UNL     1      45.440 -19.971 -17.209  1.00  0.00    -0.027 C 
BRANCH  14  15
HETATM   15  C   UNL     1      46.860 -20.468 -17.270  1.00  0.00     0.053 C 
BRANCH  15  16
HETATM   16  C   UNL     1      47.269 -20.576 -18.722  1.00  0.00    -0.027 C 
HETATM   17  C   UNL     1      48.046 -19.730 -19.430  1.00  0.00    -0.027 C 
BRANCH  17  18
HETATM   18  C   UNL     1      48.712 -18.475 -18.931  1.00  0.00     0.053 C 
BRANCH  18  19
HETATM   19  C   UNL     1      49.504 -17.816 -20.036  1.00  0.00    -0.027 C 
HETATM   20  C   UNL     1      49.194 -16.689 -20.708  1.00  0.00    -0.027 C 
BRANCH  20  21
HETATM   21  C   UNL     1      48.007 -15.788 -20.476  1.00  0.00     0.053 C 
BRANCH  21  22
HETATM   22  C   UNL     1      46.936 -16.030 -21.514  1.00  0.00    -0.027 C 
HETATM   23  C   UNL     1      45.788 -16.718 -21.355  1.00  0.00    -0.031 C 
BRANCH  23  24
HETATM   24  C   UNL     1      45.326 -17.417 -20.103  1.00  0.00     0.022 C 
HETATM   25  C   UNL     1      43.924 -16.994 -19.683  1.00  0.00     0.009 C 
ENDBRANCH  23  24
ENDBRANCH  21  22
ENDBRANCH  20  21
ENDBRANCH  18  19
ENDBRANCH  17  18
ENDBRANCH  15  16
ENDBRANCH  14  15
ENDBRANCH  12  13
ENDBRANCH  11  12
ENDBRANCH   9  10
ENDBRANCH   8   9
ENDBRANCH   6   7
ENDBRANCH   5   6
ENDBRANCH   3   5
ENDBRANCH   1   3
TORSDOF 15
ENDMDL
MODEL 16
REMARK VINA RESULT:      -3.5     34.852     37.496
REMARK  15 active torsions:
REMARK  status: ('A' for Active; 'I' for Inactive)
REMARK    1  A    between atoms: O_1  and  C_23 
REMARK    2  A    between atoms: C_3  and  C_7 
REMARK    3  A    between atoms: C_3  and  C_8 
REMARK    4  A    between atoms: C_4  and  C_10 
REMARK    5  A    between atoms: C_4  and  C_11 
REMARK    6  A    between atoms: C_5  and  C_12 
REMARK    7  A    between atoms: C_5  and  C_13 
REMARK    8  A    between atoms: C_6  and  C_15 
REMARK    9  A    between atoms: C_6  and  C_16 
REMARK   10  A    between atoms: C_7  and  C_23 
REMARK   11  A    between atoms: C_9  and  C_17 
REMARK   12  A    between atoms: C_9  and  C_18 
REMARK   13  A    between atoms: C_14  and  C_19 
REMARK   14  A    between atoms: C_14  and  C_20 
REMARK   15  A    between atoms: C_21  and  C_22 
ROOT
HETATM    1  O   UNL     1      46.844 -18.506 -17.228  1.00  0.00    -0.776 OA
HETATM    2  H   UNL     1      46.553 -18.542 -18.149  1.00  0.00     0.167 HD
ENDROOT
BRANCH   1   3
HETATM    3  C   UNL     1      46.874 -17.341 -16.544  1.00  0.00     0.139 C 
HETATM    4  O   UNL     1      47.126 -16.296 -17.126  1.00  0.00    -0.650 OA
BRANCH   3   5
HETATM    5  C   UNL     1      46.594 -17.335 -15.068  1.00  0.00     0.113 C 
BRANCH   5   6
HETATM    6  C   UNL     1      47.719 -16.630 -14.301  1.00  0.00     0.037 C 
BRANCH   6   7
HETATM    7  C   UNL     1      48.951 -17.500 -14.244  1.00  0.00    -0.030 C 
HETATM    8  C   UNL     1      49.426 -18.168 -13.171  1.00  0.00    -0.027 C 
BRANCH   8   9
HETATM    9  C   UNL     1      48.840 -18.204 -11.775  1.00  0.00     0.053 C 
BRANCH   9  10
HETATM   10  C   UNL     1      49.290 -17.009 -10.973  1.00  0.00    -0.027 C 
HETATM   11  C   UNL     1      49.263 -16.909  -9.632  1.00  0.00    -0.027 C 
BRANCH  11  12
HETATM   12  C   UNL     1      48.830 -17.995  -8.682  1.00  0.00     0.053 C 
BRANCH  12  13
HETATM   13  C   UNL     1      49.287 -17.695  -7.276  1.00  0.00    -0.027 C 
HETATM   14  C   UNL     1      48.672 -16.896  -6.385  1.00  0.00    -0.027 C 
BRANCH  14  15
HETATM   15  C   UNL     1      47.420 -16.095  -6.628  1.00  0.00     0.053 C 
BRANCH  15  16
HETATM   16  C   UNL     1      46.254 -16.824  -5.997  1.00  0.00    -0.027 C 
HETATM   17  C   UNL     1      45.079 -17.158  -6.568  1.00  0.00    -0.027 C 
BRANCH  17  18
HETATM   18  C   UNL     1      44.653 -16.901  -7.989  1.00  0.00     0.053 C 
BRANCH  18  19
HETATM   19  C   UNL     1      45.130 -18.009  -8.898  1.00  0.00    -0.027 C 
HETATM   20  C   UNL     1      45.440 -17.921 -10.208  1.00  0.00    -0.027 C 
BRANCH  20  21
HETATM   21  C   UNL     1      45.436 -16.677 -11.062  1.00  0.00     0.053 C 
BRANCH  21  22
HETATM   22  C   UNL     1      44.473 -16.822 -12.218  1.00  0.00    -0.027 C 
HETATM   23  C   UNL     1      43.136 -16.657 -12.191  1.00  0.00    -0.031 C 
BRANCH  23  24
HETATM   24  C   UNL     1      42.299 -16.307 -10.988  1.00  0.00     0.022 C 
HETATM   25  C   UNL     1      42.208 -14.804 -10.759  1.00  0.00     0.009 C 
ENDBRANCH  23  24
ENDBRANCH  21  22
ENDBRANCH  20  21
ENDBRANCH  18  19
ENDBRANCH  17  18
ENDBRANCH  15  16
ENDBRANCH  14  15
ENDBRANCH  12  13
ENDBRANCH  11  12
ENDBRANCH   9  10
ENDBRANCH   8   9
ENDBRANCH   6   7
ENDBRANCH   5   6
ENDBRANCH   3   5
ENDBRANCH   1   3
TORSDOF 15
ENDMDL
MODEL 17
REMARK VINA RESULT:      -3.5      2.907      4.690
REMARK  15 active torsions:
REMARK  status: ('A' for Active; 'I' for Inactive)
REMARK    1  A    between atoms: O_1  and  C_23 
REMARK    2  A    between atoms: C_3  and  C_7 
REMARK    3  A    between atoms: C_3  and  C_8 
REMARK    4  A    between atoms: C_4  and  C_10 
REMARK    5  A    between atoms: C_4  and  C_11 
REMARK    6  A    between atoms: C_5  and  C_12 
REMARK    7  A    between atoms: C_5  and  C_13 
REMARK    8  A    between atoms: C_6  and  C_15 
REMARK    9  A    between atoms: C_6  and  C_16 
REMARK   10  A    between atoms: C_7  and  C_23 
REMARK   11  A    between atoms: C_9  and  C_17 
REMARK   12  A    between atoms: C_9  and  C_18 
REMARK   13  A    between atoms: C_14  and  C_19 
REMARK   14  A    between atoms: C_14  and  C_20 
REMARK   15  A    between atoms: C_21  and  C_22 
ROOT
HETATM    1  O   UNL     1       6.911 -12.436 -15.847  1.00  0.00    -0.776 OA
HETATM    2  H   UNL     1       6.310 -11.690 -15.714  1.00  0.00     0.167 HD
ENDROOT
BRANCH   1   3
HETATM    3  C   UNL     1       8.203 -12.247 -16.188  1.00  0.00     0.139 C 
HETATM    4  O   UNL     1       8.564 -12.421 -17.343  1.00  0.00    -0.650 OA
BRANCH   3   5
HETATM    5  C   UNL     1       9.195 -11.819 -15.144  1.00  0.00     0.113 C 
BRANCH   5   6
HETATM    6  C   UNL     1       8.936 -12.538 -13.815  1.00  0.00     0.037 C 
BRANCH   6   7
HETATM    7  C   UNL     1       8.865 -11.547 -12.678  1.00  0.00    -0.030 C 
HETATM    8  C   UNL     1       9.000 -11.811 -11.361  1.00  0.00    -0.027 C 
BRANCH   8   9
HETATM    9  C   UNL     1       9.254 -13.155 -10.712  1.00  0.00     0.053 C 
BRANCH   9  10
HETATM   10  C   UNL     1      10.203 -13.018  -9.548  1.00  0.00    -0.027 C 
HETATM   11  C   UNL     1      11.350 -13.701  -9.385  1.00  0.00    -0.027 C 
BRANCH  11  12
HETATM   12  C   UNL     1      11.926 -14.688 -10.366  1.00  0.00     0.053 C 
BRANCH  12  13
HETATM   13  C   UNL     1      11.535 -16.099 -10.003  1.00  0.00    -0.027 C 
HETATM   14  C   UNL     1      10.811 -16.950 -10.754  1.00  0.00    -0.027 C 
BRANCH  14  15
HETATM   15  C   UNL     1      10.199 -16.648 -12.096  1.00  0.00     0.053 C 
BRANCH  15  16
HETATM   16  C   UNL     1      11.106 -17.201 -13.173  1.00  0.00    -0.027 C 
HETATM   17  C   UNL     1      11.613 -16.554 -14.242  1.00  0.00    -0.027 C 
BRANCH  17  18
HETATM   18  C   UNL     1      11.410 -15.108 -14.610  1.00  0.00     0.053 C 
BRANCH  18  19
HETATM   19  C   UNL     1      10.997 -14.979 -16.057  1.00  0.00    -0.027 C 
HETATM   20  C   UNL     1       9.975 -15.602 -16.678  1.00  0.00    -0.027 C 
BRANCH  20  21
HETATM   21  C   UNL     1       8.966 -16.535 -16.056  1.00  0.00     0.053 C 
BRANCH  21  22
HETATM   22  C   UNL     1       8.007 -15.777 -15.168  1.00  0.00    -0.027 C 
HETATM   23  C   UNL     1       7.161 -16.292 -14.255  1.00  0.00    -0.031 C 
BRANCH  23  24
HETATM   24  C   UNL     1       6.971 -17.750 -13.929  1.00  0.00     0.022 C 
HETATM   25  C   UNL     1       6.724 -17.989 -12.445  1.00  0.00     0.009 C 
ENDBRANCH  23  24
ENDBRANCH  21  22
ENDBRANCH  20  21
ENDBRANCH  18  19
ENDBRANCH  17  18
ENDBRANCH  15  16
ENDBRANCH  14  15
ENDBRANCH  12  13
ENDBRANCH  11  12
ENDBRANCH   9  10
ENDBRANCH   8   9
ENDBRANCH   6   7
ENDBRANCH   5   6
ENDBRANCH   3   5
ENDBRANCH   1   3
TORSDOF 15
ENDMDL
MODEL 18
REMARK VINA RESULT:      -3.5     16.781     18.798
REMARK  15 active torsions:
REMARK  status: ('A' for Active; 'I' for Inactive)
REMARK    1  A    between atoms: O_1  and  C_23 
REMARK    2  A    between atoms: C_3  and  C_7 
REMARK    3  A    between atoms: C_3  and  C_8 
REMARK    4  A    between atoms: C_4  and  C_10 
REMARK    5  A    between atoms: C_4  and  C_11 
REMARK    6  A    between atoms: C_5  and  C_12 
REMARK    7  A    between atoms: C_5  and  C_13 
REMARK    8  A    between atoms: C_6  and  C_15 
REMARK    9  A    between atoms: C_6  and  C_16 
REMARK   10  A    between atoms: C_7  and  C_23 
REMARK   11  A    between atoms: C_9  and  C_17 
REMARK   12  A    between atoms: C_9  and  C_18 
REMARK   13  A    between atoms: C_14  and  C_19 
REMARK   14  A    between atoms: C_14  and  C_20 
REMARK   15  A    between atoms: C_21  and  C_22 
ROOT
HETATM    1  O   UNL     1      26.886 -12.818 -13.637  1.00  0.00    -0.776 OA
HETATM    2  H   UNL     1      25.982 -12.770 -13.976  1.00  0.00     0.167 HD
ENDROOT
BRANCH   1   3
HETATM    3  C   UNL     1      27.931 -12.345 -14.349  1.00  0.00     0.139 C 
HETATM    4  O   UNL     1      27.914 -12.397 -15.570  1.00  0.00    -0.650 OA
BRANCH   3   5
HETATM    5  C   UNL     1      29.111 -11.750 -13.635  1.00  0.00     0.113 C 
BRANCH   5   6
HETATM    6  C   UNL     1      28.657 -10.840 -12.488  1.00  0.00     0.037 C 
BRANCH   6   7
HETATM    7  C   UNL     1      29.845 -10.331 -11.709  1.00  0.00    -0.030 C 
HETATM    8  C   UNL     1      30.234 -10.718 -10.475  1.00  0.00    -0.027 C 
BRANCH   8   9
HETATM    9  C   UNL     1      29.575 -11.747  -9.582  1.00  0.00     0.053 C 
BRANCH   9  10
HETATM   10  C   UNL     1      30.150 -13.119  -9.830  1.00  0.00    -0.027 C 
HETATM   11  C   UNL     1      29.447 -14.217 -10.161  1.00  0.00    -0.027 C 
BRANCH  11  12
HETATM   12  C   UNL     1      27.961 -14.264 -10.402  1.00  0.00     0.053 C 
BRANCH  12  13
HETATM   13  C   UNL     1      27.223 -14.648  -9.144  1.00  0.00    -0.027 C 
HETATM   14  C   UNL     1      26.815 -15.883  -8.798  1.00  0.00    -0.027 C 
BRANCH  14  15
HETATM   15  C   UNL     1      26.970 -17.132  -9.624  1.00  0.00     0.053 C 
BRANCH  15  16
HETATM   16  C   UNL     1      26.007 -17.061 -10.789  1.00  0.00    -0.027 C 
HETATM   17  C   UNL     1      26.235 -17.400 -12.074  1.00  0.00    -0.027 C 
BRANCH  17  18
HETATM   18  C   UNL     1      27.508 -17.955 -12.656  1.00  0.00     0.053 C 
BRANCH  18  19
HETATM   19  C   UNL     1      28.578 -16.890 -12.710  1.00  0.00    -0.027 C 
HETATM   20  C   UNL     1      28.845 -16.045 -13.728  1.00  0.00    -0.027 C 
BRANCH  20  21
HETATM   21  C   UNL     1      28.099 -15.930 -15.034  1.00  0.00     0.053 C 
BRANCH  21  22
HETATM   22  C   UNL     1      28.820 -16.676 -16.133  1.00  0.00    -0.027 C 
HETATM   23  C   UNL     1      28.292 -17.566 -16.995  1.00  0.00    -0.031 C 
BRANCH  23  24
HETATM   24  C   UNL     1      26.860 -18.031 -17.041  1.00  0.00     0.022 C 
HETATM   25  C   UNL     1      26.040 -17.289 -18.089  1.00  0.00     0.009 C 
ENDBRANCH  23  24
ENDBRANCH  21  22
ENDBRANCH  20  21
ENDBRANCH  18  19
ENDBRANCH  17  18
ENDBRANCH  15  16
ENDBRANCH  14  15
ENDBRANCH  12  13
ENDBRANCH  11  12
ENDBRANCH   9  10
ENDBRANCH   8   9
ENDBRANCH   6   7
ENDBRANCH   5   6
ENDBRANCH   3   5
ENDBRANCH   1   3
TORSDOF 15
ENDMDL
MODEL 19
REMARK VINA RESULT:      -3.5      2.578      4.422
REMARK  15 active torsions:
REMARK  status: ('A' for Active; 'I' for Inactive)
REMARK    1  A    between atoms: O_1  and  C_23 
REMARK    2  A    between atoms: C_3  and  C_7 
REMARK    3  A    between atoms: C_3  and  C_8 
REMARK    4  A    between atoms: C_4  and  C_10 
REMARK    5  A    between atoms: C_4  and  C_11 
REMARK    6  A    between atoms: C_5  and  C_12 
REMARK    7  A    between atoms: C_5  and  C_13 
REMARK    8  A    between atoms: C_6  and  C_15 
REMARK    9  A    between atoms: C_6  and  C_16 
REMARK   10  A    between atoms: C_7  and  C_23 
REMARK   11  A    between atoms: C_9  and  C_17 
REMARK   12  A    between atoms: C_9  and  C_18 
REMARK   13  A    between atoms: C_14  and  C_19 
REMARK   14  A    between atoms: C_14  and  C_20 
REMARK   15  A    between atoms: C_21  and  C_22 
ROOT
HETATM    1  O   UNL     1       8.817 -13.972  -5.844  1.00  0.00    -0.776 OA
HETATM    2  H   UNL     1       8.997 -14.091  -4.901  1.00  0.00     0.167 HD
ENDROOT
BRANCH   1   3
HETATM    3  C   UNL     1       8.298 -12.821  -6.323  1.00  0.00     0.139 C 
HETATM    4  O   UNL     1       7.294 -12.345  -5.814  1.00  0.00    -0.650 OA
BRANCH   3   5
HETATM    5  C   UNL     1       8.961 -12.128  -7.478  1.00  0.00     0.113 C 
BRANCH   5   6
HETATM    6  C   UNL     1       8.784 -12.929  -8.773  1.00  0.00     0.037 C 
BRANCH   6   7
HETATM    7  C   UNL     1       9.662 -12.373  -9.868  1.00  0.00    -0.030 C 
HETATM    8  C   UNL     1      10.956 -12.676 -10.103  1.00  0.00    -0.027 C 
BRANCH   8   9
HETATM    9  C   UNL     1      11.833 -13.639  -9.331  1.00  0.00     0.053 C 
BRANCH   9  10
HETATM   10  C   UNL     1      11.987 -14.940 -10.077  1.00  0.00    -0.027 C 
HETATM   11  C   UNL     1      11.284 -16.064  -9.849  1.00  0.00    -0.027 C 
BRANCH  11  12
HETATM   12  C   UNL     1      10.171 -16.211  -8.844  1.00  0.00     0.053 C 
BRANCH  12  13
HETATM   13  C   UNL     1       9.272 -17.368  -9.202  1.00  0.00    -0.027 C 
HETATM   14  C   UNL     1       8.639 -17.560 -10.374  1.00  0.00    -0.027 C 
BRANCH  14  15
HETATM   15  C   UNL     1       8.661 -16.629 -11.557  1.00  0.00     0.053 C 
BRANCH  15  16
HETATM   16  C   UNL     1       7.800 -15.427 -11.239  1.00  0.00    -0.027 C 
HETATM   17  C   UNL     1       7.524 -14.373 -12.033  1.00  0.00    -0.027 C 
BRANCH  17  18
HETATM   18  C   UNL     1       7.995 -14.150 -13.446  1.00  0.00     0.053 C 
BRANCH  18  19
HETATM   19  C   UNL     1       9.133 -13.156 -13.477  1.00  0.00    -0.027 C 
HETATM   20  C   UNL     1      10.456 -13.422 -13.487  1.00  0.00    -0.027 C 
BRANCH  20  21
HETATM   21  C   UNL     1      11.110 -14.781 -13.524  1.00  0.00     0.053 C 
BRANCH  21  22
HETATM   22  C   UNL     1      11.153 -15.319 -14.936  1.00  0.00    -0.027 C 
HETATM   23  C   UNL     1      11.504 -16.560 -15.325  1.00  0.00    -0.031 C 
BRANCH  23  24
HETATM   24  C   UNL     1      11.954 -17.687 -14.431  1.00  0.00     0.022 C 
HETATM   25  C   UNL     1      10.785 -18.479 -13.859  1.00  0.00     0.009 C 
ENDBRANCH  23  24
ENDBRANCH  21  22
ENDBRANCH  20  21
ENDBRANCH  18  19
ENDBRANCH  17  18
ENDBRANCH  15  16
ENDBRANCH  14  15
ENDBRANCH  12  13
ENDBRANCH  11  12
ENDBRANCH   9  10
ENDBRANCH   8   9
ENDBRANCH   6   7
ENDBRANCH   5   6
ENDBRANCH   3   5
ENDBRANCH   1   3
TORSDOF 15
ENDMDL
MODEL 20
REMARK VINA RESULT:      -3.5      3.166      5.699
REMARK  15 active torsions:
REMARK  status: ('A' for Active; 'I' for Inactive)
REMARK    1  A    between atoms: O_1  and  C_23 
REMARK    2  A    between atoms: C_3  and  C_7 
REMARK    3  A    between atoms: C_3  and  C_8 
REMARK    4  A    between atoms: C_4  and  C_10 
REMARK    5  A    between atoms: C_4  and  C_11 
REMARK    6  A    between atoms: C_5  and  C_12 
REMARK    7  A    between atoms: C_5  and  C_13 
REMARK    8  A    between atoms: C_6  and  C_15 
REMARK    9  A    between atoms: C_6  and  C_16 
REMARK   10  A    between atoms: C_7  and  C_23 
REMARK   11  A    between atoms: C_9  and  C_17 
REMARK   12  A    between atoms: C_9  and  C_18 
REMARK   13  A    between atoms: C_14  and  C_19 
REMARK   14  A    between atoms: C_14  and  C_20 
REMARK   15  A    between atoms: C_21  and  C_22 
ROOT
HETATM    1  O   UNL     1       6.295 -18.345  -5.992  1.00  0.00    -0.776 OA
HETATM    2  H   UNL     1       6.470 -18.108  -5.071  1.00  0.00     0.167 HD
ENDROOT
BRANCH   1   3
HETATM    3  C   UNL     1       5.290 -17.771  -6.687  1.00  0.00     0.139 C 
HETATM    4  O   UNL     1       4.358 -17.245  -6.095  1.00  0.00    -0.650 OA
BRANCH   3   5
HETATM    5  C   UNL     1       5.322 -17.778  -8.189  1.00  0.00     0.113 C 
BRANCH   5   6
HETATM    6  C   UNL     1       6.731 -17.464  -8.707  1.00  0.00     0.037 C 
BRANCH   6   7
HETATM    7  C   UNL     1       6.891 -17.936 -10.132  1.00  0.00    -0.030 C 
HETATM    8  C   UNL     1       6.781 -17.190 -11.252  1.00  0.00    -0.027 C 
BRANCH   8   9
HETATM    9  C   UNL     1       6.474 -15.711 -11.348  1.00  0.00     0.053 C 
BRANCH   9  10
HETATM   10  C   UNL     1       7.315 -15.056 -12.414  1.00  0.00    -0.027 C 
HETATM   11  C   UNL     1       7.785 -13.796 -12.380  1.00  0.00    -0.027 C 
BRANCH  11  12
HETATM   12  C   UNL     1       7.607 -12.827 -11.241  1.00  0.00     0.053 C 
BRANCH  12  13
HETATM   13  C   UNL     1       8.800 -11.912 -11.121  1.00  0.00    -0.027 C 
HETATM   14  C   UNL     1       9.585 -11.754 -10.038  1.00  0.00    -0.027 C 
BRANCH  14  15
HETATM   15  C   UNL     1       9.401 -12.425  -8.703  1.00  0.00     0.053 C 
BRANCH  15  16
HETATM   16  C   UNL     1      10.572 -13.353  -8.466  1.00  0.00    -0.027 C 
HETATM   17  C   UNL     1      10.701 -14.639  -8.850  1.00  0.00    -0.027 C 
BRANCH  17  18
HETATM   18  C   UNL     1       9.707 -15.459  -9.630  1.00  0.00     0.053 C 
BRANCH  18  19
HETATM   19  C   UNL     1      10.416 -16.373 -10.602  1.00  0.00    -0.027 C 
HETATM   20  C   UNL     1      10.953 -16.046 -11.795  1.00  0.00    -0.027 C 
BRANCH  20  21
HETATM   21  C   UNL     1      11.019 -14.672 -12.416  1.00  0.00     0.053 C 
BRANCH  21  22
HETATM   22  C   UNL     1      11.072 -14.766 -13.923  1.00  0.00    -0.027 C 
HETATM   23  C   UNL     1      10.801 -13.789 -14.811  1.00  0.00    -0.031 C 
BRANCH  23  24
HETATM   24  C   UNL     1      10.365 -12.382 -14.491  1.00  0.00     0.022 C 
HETATM   25  C   UNL     1       9.197 -11.924 -15.355  1.00  0.00     0.009 C 
ENDBRANCH  23  24
ENDBRANCH  21  22
ENDBRANCH  20  21
ENDBRANCH  18  19
ENDBRANCH  17  18
ENDBRANCH  15  16
ENDBRANCH  14  15
ENDBRANCH  12  13
ENDBRANCH  11  12
ENDBRANCH   9  10
ENDBRANCH   8   9
ENDBRANCH   6   7
ENDBRANCH   5   6
ENDBRANCH   3   5
ENDBRANCH   1   3
TORSDOF 15
ENDMDL
