MODEL 1
REMARK VINA RESULT:      -4.9      0.000      0.000
REMARK  15 active torsions:
REMARK  status: ('A' for Active; 'I' for Inactive)
REMARK    1  A    between atoms: O_1  and  C_23 
REMARK    2  A    between atoms: C_3  and  C_7 
REMARK    3  A    between atoms: C_3  and  C_8 
REMARK    4  A    between atoms: C_4  and  C_10 
REMARK    5  A    between atoms: C_4  and  C_11 
REMARK    6  A    between atoms: C_5  and  C_12 
REMARK    7  A    between atoms: C_5  and  C_13 
REMARK    8  A    between atoms: C_6  and  C_15 
REMARK    9  A    between atoms: C_6  and  C_16 
REMARK   10  A    between atoms: C_7  and  C_23 
REMARK   11  A    between atoms: C_9  and  C_17 
REMARK   12  A    between atoms: C_9  and  C_18 
REMARK   13  A    between atoms: C_14  and  C_19 
REMARK   14  A    between atoms: C_14  and  C_20 
REMARK   15  A    between atoms: C_21  and  C_22 
ROOT
HETATM    1  O   UNL     1      29.171  10.448 -12.778  1.00  0.00    -0.776 OA
HETATM    2  H   UNL     1      28.596  10.055 -12.107  1.00  0.00     0.167 HD
ENDROOT
BRANCH   1   3
HETATM    3  C   UNL     1      28.957  10.243 -14.096  1.00  0.00     0.139 C 
HETATM    4  O   UNL     1      27.986  10.744 -14.644  1.00  0.00    -0.650 OA
BRANCH   3   5
HETATM    5  C   UNL     1      29.917   9.399 -14.885  1.00  0.00     0.113 C 
BRANCH   5   6
HETATM    6  C   UNL     1      30.700   8.455 -13.965  1.00  0.00     0.037 C 
BRANCH   6   7
HETATM    7  C   UNL     1      32.186   8.682 -14.109  1.00  0.00    -0.030 C 
HETATM    8  C   UNL     1      33.155   7.742 -14.108  1.00  0.00    -0.027 C 
BRANCH   8   9
HETATM    9  C   UNL     1      32.986   6.245 -13.963  1.00  0.00     0.053 C 
BRANCH   9  10
HETATM   10  C   UNL     1      33.442   5.529 -15.209  1.00  0.00    -0.027 C 
HETATM   11  C   UNL     1      32.648   5.128 -16.219  1.00  0.00    -0.027 C 
BRANCH  11  12
HETATM   12  C   UNL     1      31.165   5.373 -16.315  1.00  0.00     0.053 C 
BRANCH  12  13
HETATM   13  C   UNL     1      30.870   6.540 -17.224  1.00  0.00    -0.027 C 
HETATM   14  C   UNL     1      30.762   6.506 -18.565  1.00  0.00    -0.027 C 
BRANCH  14  15
HETATM   15  C   UNL     1      30.964   5.299 -19.441  1.00  0.00     0.053 C 
BRANCH  15  16
HETATM   16  C   UNL     1      31.294   5.770 -20.841  1.00  0.00    -0.027 C 
HETATM   17  C   UNL     1      32.502   6.094 -21.343  1.00  0.00    -0.027 C 
BRANCH  17  18
HETATM   18  C   UNL     1      33.827   6.046 -20.627  1.00  0.00     0.053 C 
BRANCH  18  19
HETATM   19  C   UNL     1      34.468   7.414 -20.600  1.00  0.00    -0.027 C 
HETATM   20  C   UNL     1      34.522   8.275 -19.564  1.00  0.00    -0.027 C 
BRANCH  20  21
HETATM   21  C   UNL     1      34.000   8.051 -18.166  1.00  0.00     0.053 C 
BRANCH  21  22
HETATM   22  C   UNL     1      33.283   9.279 -17.656  1.00  0.00    -0.027 C 
HETATM   23  C   UNL     1      33.798  10.268 -16.901  1.00  0.00    -0.031 C 
BRANCH  23  24
HETATM   24  C   UNL     1      35.208  10.359 -16.379  1.00  0.00     0.022 C 
HETATM   25  C   UNL     1      36.181  10.896 -17.421  1.00  0.00     0.009 C 
ENDBRANCH  23  24
ENDBRANCH  21  22
ENDBRANCH  20  21
ENDBRANCH  18  19
ENDBRANCH  17  18
ENDBRANCH  15  16
ENDBRANCH  14  15
ENDBRANCH  12  13
ENDBRANCH  11  12
ENDBRANCH   9  10
ENDBRANCH   8   9
ENDBRANCH   6   7
ENDBRANCH   5   6
ENDBRANCH   3   5
ENDBRANCH   1   3
TORSDOF 15
ENDMDL
MODEL 2
REMARK VINA RESULT:      -4.7      5.419      8.787
REMARK  15 active torsions:
REMARK  status: ('A' for Active; 'I' for Inactive)
REMARK    1  A    between atoms: O_1  and  C_23 
REMARK    2  A    between atoms: C_3  and  C_7 
REMARK    3  A    between atoms: C_3  and  C_8 
REMARK    4  A    between atoms: C_4  and  C_10 
REMARK    5  A    between atoms: C_4  and  C_11 
REMARK    6  A    between atoms: C_5  and  C_12 
REMARK    7  A    between atoms: C_5  and  C_13 
REMARK    8  A    between atoms: C_6  and  C_15 
REMARK    9  A    between atoms: C_6  and  C_16 
REMARK   10  A    between atoms: C_7  and  C_23 
REMARK   11  A    between atoms: C_9  and  C_17 
REMARK   12  A    between atoms: C_9  and  C_18 
REMARK   13  A    between atoms: C_14  and  C_19 
REMARK   14  A    between atoms: C_14  and  C_20 
REMARK   15  A    between atoms: C_21  and  C_22 
ROOT
HETATM    1  O   UNL     1      28.407  10.305 -10.322  1.00  0.00    -0.776 OA
HETATM    2  H   UNL     1      28.686  10.791 -11.110  1.00  0.00     0.167 HD
ENDROOT
BRANCH   1   3
HETATM    3  C   UNL     1      29.213  10.185  -9.246  1.00  0.00     0.139 C 
HETATM    4  O   UNL     1      28.893  10.694  -8.181  1.00  0.00    -0.650 OA
BRANCH   3   5
HETATM    5  C   UNL     1      30.501   9.421  -9.360  1.00  0.00     0.113 C 
BRANCH   5   6
HETATM    6  C   UNL     1      31.523  10.194 -10.202  1.00  0.00     0.037 C 
BRANCH   6   7
HETATM    7  C   UNL     1      32.467  10.968  -9.314  1.00  0.00    -0.030 C 
HETATM    8  C   UNL     1      33.619  10.521  -8.768  1.00  0.00    -0.027 C 
BRANCH   8   9
HETATM    9  C   UNL     1      34.236   9.147  -8.915  1.00  0.00     0.053 C 
BRANCH   9  10
HETATM   10  C   UNL     1      35.090   9.072 -10.155  1.00  0.00    -0.027 C 
HETATM   11  C   UNL     1      34.909   8.224 -11.184  1.00  0.00    -0.027 C 
BRANCH  11  12
HETATM   12  C   UNL     1      33.782   7.232 -11.311  1.00  0.00     0.053 C 
BRANCH  12  13
HETATM   13  C   UNL     1      33.276   7.170 -12.731  1.00  0.00    -0.027 C 
HETATM   14  C   UNL     1      31.990   7.134 -13.124  1.00  0.00    -0.027 C 
BRANCH  14  15
HETATM   15  C   UNL     1      30.786   7.098 -12.220  1.00  0.00     0.053 C 
BRANCH  15  16
HETATM   16  C   UNL     1      30.612   5.686 -11.707  1.00  0.00    -0.027 C 
HETATM   17  C   UNL     1      30.730   5.245 -10.438  1.00  0.00    -0.027 C 
BRANCH  17  18
HETATM   18  C   UNL     1      31.048   6.066  -9.216  1.00  0.00     0.053 C 
BRANCH  18  19
HETATM   19  C   UNL     1      31.188   5.179  -8.000  1.00  0.00    -0.027 C 
HETATM   20  C   UNL     1      32.210   5.148  -7.120  1.00  0.00    -0.027 C 
BRANCH  20  21
HETATM   21  C   UNL     1      33.432   6.033  -7.113  1.00  0.00     0.053 C 
BRANCH  21  22
HETATM   22  C   UNL     1      33.624   6.674  -5.758  1.00  0.00    -0.027 C 
HETATM   23  C   UNL     1      33.011   7.776  -5.284  1.00  0.00    -0.031 C 
BRANCH  23  24
HETATM   24  C   UNL     1      32.006   8.628  -6.013  1.00  0.00     0.022 C 
HETATM   25  C   UNL     1      30.570   8.197  -5.741  1.00  0.00     0.009 C 
ENDBRANCH  23  24
ENDBRANCH  21  22
ENDBRANCH  20  21
ENDBRANCH  18  19
ENDBRANCH  17  18
ENDBRANCH  15  16
ENDBRANCH  14  15
ENDBRANCH  12  13
ENDBRANCH  11  12
ENDBRANCH   9  10
ENDBRANCH   8   9
ENDBRANCH   6   7
ENDBRANCH   5   6
ENDBRANCH   3   5
ENDBRANCH   1   3
TORSDOF 15
ENDMDL
MODEL 3
REMARK VINA RESULT:      -4.7      3.869      5.947
REMARK  15 active torsions:
REMARK  status: ('A' for Active; 'I' for Inactive)
REMARK    1  A    between atoms: O_1  and  C_23 
REMARK    2  A    between atoms: C_3  and  C_7 
REMARK    3  A    between atoms: C_3  and  C_8 
REMARK    4  A    between atoms: C_4  and  C_10 
REMARK    5  A    between atoms: C_4  and  C_11 
REMARK    6  A    between atoms: C_5  and  C_12 
REMARK    7  A    between atoms: C_5  and  C_13 
REMARK    8  A    between atoms: C_6  and  C_15 
REMARK    9  A    between atoms: C_6  and  C_16 
REMARK   10  A    between atoms: C_7  and  C_23 
REMARK   11  A    between atoms: C_9  and  C_17 
REMARK   12  A    between atoms: C_9  and  C_18 
REMARK   13  A    between atoms: C_14  and  C_19 
REMARK   14  A    between atoms: C_14  and  C_20 
REMARK   15  A    between atoms: C_21  and  C_22 
ROOT
HETATM    1  O   UNL     1      29.664  11.634  -8.861  1.00  0.00    -0.776 OA
HETATM    2  H   UNL     1      30.561  11.945  -9.049  1.00  0.00     0.167 HD
ENDROOT
BRANCH   1   3
HETATM    3  C   UNL     1      29.102  10.634  -9.572  1.00  0.00     0.139 C 
HETATM    4  O   UNL     1      27.899  10.427  -9.493  1.00  0.00    -0.650 OA
BRANCH   3   5
HETATM    5  C   UNL     1      29.958   9.779 -10.462  1.00  0.00     0.113 C 
BRANCH   5   6
HETATM    6  C   UNL     1      30.450   8.533  -9.716  1.00  0.00     0.037 C 
BRANCH   6   7
HETATM    7  C   UNL     1      30.928   8.897  -8.331  1.00  0.00    -0.030 C 
HETATM    8  C   UNL     1      30.999   8.082  -7.256  1.00  0.00    -0.027 C 
BRANCH   8   9
HETATM    9  C   UNL     1      30.618   6.619  -7.183  1.00  0.00     0.053 C 
BRANCH   9  10
HETATM   10  C   UNL     1      31.846   5.749  -7.081  1.00  0.00    -0.027 C 
HETATM   11  C   UNL     1      32.496   5.185  -8.114  1.00  0.00    -0.027 C 
BRANCH  11  12
HETATM   12  C   UNL     1      32.150   5.366  -9.569  1.00  0.00     0.053 C 
BRANCH  12  13
HETATM   13  C   UNL     1      33.322   5.927 -10.335  1.00  0.00    -0.027 C 
HETATM   14  C   UNL     1      33.301   6.421 -11.587  1.00  0.00    -0.027 C 
BRANCH  14  15
HETATM   15  C   UNL     1      32.105   6.470 -12.501  1.00  0.00     0.053 C 
BRANCH  15  16
HETATM   16  C   UNL     1      32.169   5.286 -13.440  1.00  0.00    -0.027 C 
HETATM   17  C   UNL     1      32.354   5.297 -14.776  1.00  0.00    -0.027 C 
BRANCH  17  18
HETATM   18  C   UNL     1      32.564   6.501 -15.655  1.00  0.00     0.053 C 
BRANCH  18  19
HETATM   19  C   UNL     1      34.037   6.778 -15.839  1.00  0.00    -0.027 C 
HETATM   20  C   UNL     1      34.754   7.793 -15.315  1.00  0.00    -0.027 C 
BRANCH  20  21
HETATM   21  C   UNL     1      34.261   8.864 -14.373  1.00  0.00     0.053 C 
BRANCH  21  22
HETATM   22  C   UNL     1      33.480   9.919 -15.121  1.00  0.00    -0.027 C 
HETATM   23  C   UNL     1      32.192  10.266 -14.934  1.00  0.00    -0.031 C 
BRANCH  23  24
HETATM   24  C   UNL     1      31.234   9.657 -13.942  1.00  0.00     0.022 C 
HETATM   25  C   UNL     1      30.042   8.991 -14.617  1.00  0.00     0.009 C 
ENDBRANCH  23  24
ENDBRANCH  21  22
ENDBRANCH  20  21
ENDBRANCH  18  19
ENDBRANCH  17  18
ENDBRANCH  15  16
ENDBRANCH  14  15
ENDBRANCH  12  13
ENDBRANCH  11  12
ENDBRANCH   9  10
ENDBRANCH   8   9
ENDBRANCH   6   7
ENDBRANCH   5   6
ENDBRANCH   3   5
ENDBRANCH   1   3
TORSDOF 15
ENDMDL
MODEL 4
REMARK VINA RESULT:      -4.6      3.741      7.866
REMARK  15 active torsions:
REMARK  status: ('A' for Active; 'I' for Inactive)
REMARK    1  A    between atoms: O_1  and  C_23 
REMARK    2  A    between atoms: C_3  and  C_7 
REMARK    3  A    between atoms: C_3  and  C_8 
REMARK    4  A    between atoms: C_4  and  C_10 
REMARK    5  A    between atoms: C_4  and  C_11 
REMARK    6  A    between atoms: C_5  and  C_12 
REMARK    7  A    between atoms: C_5  and  C_13 
REMARK    8  A    between atoms: C_6  and  C_15 
REMARK    9  A    between atoms: C_6  and  C_16 
REMARK   10  A    between atoms: C_7  and  C_23 
REMARK   11  A    between atoms: C_9  and  C_17 
REMARK   12  A    between atoms: C_9  and  C_18 
REMARK   13  A    between atoms: C_14  and  C_19 
REMARK   14  A    between atoms: C_14  and  C_20 
REMARK   15  A    between atoms: C_21  and  C_22 
ROOT
HETATM    1  O   UNL     1      28.498  10.117  -9.720  1.00  0.00    -0.776 OA
HETATM    2  H   UNL     1      28.185   9.928 -10.616  1.00  0.00     0.167 HD
ENDROOT
BRANCH   1   3
HETATM    3  C   UNL     1      28.569  11.381  -9.251  1.00  0.00     0.139 C 
HETATM    4  O   UNL     1      28.841  11.584  -8.077  1.00  0.00    -0.650 OA
BRANCH   3   5
HETATM    5  C   UNL     1      28.317  12.536 -10.178  1.00  0.00     0.113 C 
BRANCH   5   6
HETATM    6  C   UNL     1      29.514  12.762 -11.109  1.00  0.00     0.037 C 
BRANCH   6   7
HETATM    7  C   UNL     1      29.119  12.535 -12.549  1.00  0.00    -0.030 C 
HETATM    8  C   UNL     1      29.374  11.440 -13.297  1.00  0.00    -0.027 C 
BRANCH   8   9
HETATM    9  C   UNL     1      30.111  10.187 -12.876  1.00  0.00     0.053 C 
BRANCH   9  10
HETATM   10  C   UNL     1      31.603  10.395 -12.944  1.00  0.00    -0.027 C 
HETATM   11  C   UNL     1      32.440  10.426 -11.891  1.00  0.00    -0.027 C 
BRANCH  11  12
HETATM   12  C   UNL     1      32.046  10.202 -10.454  1.00  0.00     0.053 C 
BRANCH  12  13
HETATM   13  C   UNL     1      32.932   9.166  -9.809  1.00  0.00    -0.027 C 
HETATM   14  C   UNL     1      32.545   8.193  -8.962  1.00  0.00    -0.027 C 
BRANCH  14  15
HETATM   15  C   UNL     1      31.148   7.971  -8.446  1.00  0.00     0.053 C 
BRANCH  15  16
HETATM   16  C   UNL     1      31.041   6.546  -7.948  1.00  0.00    -0.027 C 
HETATM   17  C   UNL     1      31.242   5.408  -8.643  1.00  0.00    -0.027 C 
BRANCH  17  18
HETATM   18  C   UNL     1      31.645   5.285 -10.089  1.00  0.00     0.053 C 
BRANCH  18  19
HETATM   19  C   UNL     1      30.522   5.732 -10.995  1.00  0.00    -0.027 C 
HETATM   20  C   UNL     1      30.627   6.371 -12.178  1.00  0.00    -0.027 C 
BRANCH  20  21
HETATM   21  C   UNL     1      31.898   6.742 -12.903  1.00  0.00     0.053 C 
BRANCH  21  22
HETATM   22  C   UNL     1      32.370   5.604 -13.777  1.00  0.00    -0.027 C 
HETATM   23  C   UNL     1      31.893   5.254 -14.987  1.00  0.00    -0.031 C 
BRANCH  23  24
HETATM   24  C   UNL     1      30.761   5.914 -15.731  1.00  0.00     0.022 C 
HETATM   25  C   UNL     1      30.396   5.175 -17.012  1.00  0.00     0.009 C 
ENDBRANCH  23  24
ENDBRANCH  21  22
ENDBRANCH  20  21
ENDBRANCH  18  19
ENDBRANCH  17  18
ENDBRANCH  15  16
ENDBRANCH  14  15
ENDBRANCH  12  13
ENDBRANCH  11  12
ENDBRANCH   9  10
ENDBRANCH   8   9
ENDBRANCH   6   7
ENDBRANCH   5   6
ENDBRANCH   3   5
ENDBRANCH   1   3
TORSDOF 15
ENDMDL
MODEL 5
REMARK VINA RESULT:      -4.6      2.008      5.207
REMARK  15 active torsions:
REMARK  status: ('A' for Active; 'I' for Inactive)
REMARK    1  A    between atoms: O_1  and  C_23 
REMARK    2  A    between atoms: C_3  and  C_7 
REMARK    3  A    between atoms: C_3  and  C_8 
REMARK    4  A    between atoms: C_4  and  C_10 
REMARK    5  A    between atoms: C_4  and  C_11 
REMARK    6  A    between atoms: C_5  and  C_12 
REMARK    7  A    between atoms: C_5  and  C_13 
REMARK    8  A    between atoms: C_6  and  C_15 
REMARK    9  A    between atoms: C_6  and  C_16 
REMARK   10  A    between atoms: C_7  and  C_23 
REMARK   11  A    between atoms: C_9  and  C_17 
REMARK   12  A    between atoms: C_9  and  C_18 
REMARK   13  A    between atoms: C_14  and  C_19 
REMARK   14  A    between atoms: C_14  and  C_20 
REMARK   15  A    between atoms: C_21  and  C_22 
ROOT
HETATM    1  O   UNL     1      28.464  10.591 -13.876  1.00  0.00    -0.776 OA
HETATM    2  H   UNL     1      27.967  10.909 -14.642  1.00  0.00     0.167 HD
ENDROOT
BRANCH   1   3
HETATM    3  C   UNL     1      29.709  10.084 -14.006  1.00  0.00     0.139 C 
HETATM    4  O   UNL     1      30.072   9.161 -13.291  1.00  0.00    -0.650 OA
BRANCH   3   5
HETATM    5  C   UNL     1      30.644  10.656 -15.033  1.00  0.00     0.113 C 
BRANCH   5   6
HETATM    6  C   UNL     1      31.369   9.540 -15.794  1.00  0.00     0.037 C 
BRANCH   6   7
HETATM    7  C   UNL     1      30.587   9.136 -17.021  1.00  0.00    -0.030 C 
HETATM    8  C   UNL     1      31.034   8.408 -18.066  1.00  0.00    -0.027 C 
BRANCH   8   9
HETATM    9  C   UNL     1      32.417   7.826 -18.259  1.00  0.00     0.053 C 
BRANCH   9  10
HETATM   10  C   UNL     1      32.343   6.476 -18.928  1.00  0.00    -0.027 C 
HETATM   11  C   UNL     1      32.405   5.286 -18.305  1.00  0.00    -0.027 C 
BRANCH  11  12
HETATM   12  C   UNL     1      32.502   5.083 -16.815  1.00  0.00     0.053 C 
BRANCH  12  13
HETATM   13  C   UNL     1      31.142   5.179 -16.169  1.00  0.00    -0.027 C 
HETATM   14  C   UNL     1      30.861   5.710 -14.965  1.00  0.00    -0.027 C 
BRANCH  14  15
HETATM   15  C   UNL     1      31.859   6.276 -13.990  1.00  0.00     0.053 C 
BRANCH  15  16
HETATM   16  C   UNL     1      32.402   5.144 -13.146  1.00  0.00    -0.027 C 
HETATM   17  C   UNL     1      32.706   5.162 -11.833  1.00  0.00    -0.027 C 
BRANCH  17  18
HETATM   18  C   UNL     1      32.557   6.319 -10.880  1.00  0.00     0.053 C 
BRANCH  18  19
HETATM   19  C   UNL     1      33.873   7.042 -10.710  1.00  0.00    -0.027 C 
HETATM   20  C   UNL     1      34.206   8.262 -11.181  1.00  0.00    -0.027 C 
BRANCH  20  21
HETATM   21  C   UNL     1      33.321   9.216 -11.942  1.00  0.00     0.053 C 
BRANCH  21  22
HETATM   22  C   UNL     1      34.130  10.041 -12.916  1.00  0.00    -0.027 C 
HETATM   23  C   UNL     1      34.661   9.633 -14.085  1.00  0.00    -0.031 C 
BRANCH  23  24
HETATM   24  C   UNL     1      34.578   8.249 -14.674  1.00  0.00     0.022 C 
HETATM   25  C   UNL     1      35.042   8.203 -16.124  1.00  0.00     0.009 C 
ENDBRANCH  23  24
ENDBRANCH  21  22
ENDBRANCH  20  21
ENDBRANCH  18  19
ENDBRANCH  17  18
ENDBRANCH  15  16
ENDBRANCH  14  15
ENDBRANCH  12  13
ENDBRANCH  11  12
ENDBRANCH   9  10
ENDBRANCH   8   9
ENDBRANCH   6   7
ENDBRANCH   5   6
ENDBRANCH   3   5
ENDBRANCH   1   3
TORSDOF 15
ENDMDL
MODEL 6
REMARK VINA RESULT:      -4.6      2.592      4.742
REMARK  15 active torsions:
REMARK  status: ('A' for Active; 'I' for Inactive)
REMARK    1  A    between atoms: O_1  and  C_23 
REMARK    2  A    between atoms: C_3  and  C_7 
REMARK    3  A    between atoms: C_3  and  C_8 
REMARK    4  A    between atoms: C_4  and  C_10 
REMARK    5  A    between atoms: C_4  and  C_11 
REMARK    6  A    between atoms: C_5  and  C_12 
REMARK    7  A    between atoms: C_5  and  C_13 
REMARK    8  A    between atoms: C_6  and  C_15 
REMARK    9  A    between atoms: C_6  and  C_16 
REMARK   10  A    between atoms: C_7  and  C_23 
REMARK   11  A    between atoms: C_9  and  C_17 
REMARK   12  A    between atoms: C_9  and  C_18 
REMARK   13  A    between atoms: C_14  and  C_19 
REMARK   14  A    between atoms: C_14  and  C_20 
REMARK   15  A    between atoms: C_21  and  C_22 
ROOT
HETATM    1  O   UNL     1      28.040  13.208 -14.954  1.00  0.00    -0.776 OA
HETATM    2  H   UNL     1      28.410  14.094 -14.834  1.00  0.00     0.167 HD
ENDROOT
BRANCH   1   3
HETATM    3  C   UNL     1      28.380  12.188 -14.138  1.00  0.00     0.139 C 
HETATM    4  O   UNL     1      28.042  11.045 -14.413  1.00  0.00    -0.650 OA
BRANCH   3   5
HETATM    5  C   UNL     1      29.176  12.460 -12.893  1.00  0.00     0.113 C 
BRANCH   5   6
HETATM    6  C   UNL     1      29.727  11.159 -12.300  1.00  0.00     0.037 C 
BRANCH   6   7
HETATM    7  C   UNL     1      31.046  11.406 -11.607  1.00  0.00    -0.030 C 
HETATM    8  C   UNL     1      31.600  10.662 -10.626  1.00  0.00    -0.027 C 
BRANCH   8   9
HETATM    9  C   UNL     1      31.036   9.410  -9.989  1.00  0.00     0.053 C 
BRANCH   9  10
HETATM   10  C   UNL     1      31.991   8.253 -10.143  1.00  0.00    -0.027 C 
HETATM   11  C   UNL     1      31.832   7.209 -10.976  1.00  0.00    -0.027 C 
BRANCH  11  12
HETATM   12  C   UNL     1      30.698   7.035 -11.952  1.00  0.00     0.053 C 
BRANCH  12  13
HETATM   13  C   UNL     1      30.561   5.590 -12.364  1.00  0.00    -0.027 C 
HETATM   14  C   UNL     1      30.871   5.064 -13.564  1.00  0.00    -0.027 C 
BRANCH  14  15
HETATM   15  C   UNL     1      31.375   5.824 -14.762  1.00  0.00     0.053 C 
BRANCH  15  16
HETATM   16  C   UNL     1      32.621   5.138 -15.277  1.00  0.00    -0.027 C 
HETATM   17  C   UNL     1      33.791   5.704 -15.636  1.00  0.00    -0.027 C 
BRANCH  17  18
HETATM   18  C   UNL     1      34.144   7.168 -15.591  1.00  0.00     0.053 C 
BRANCH  18  19
HETATM   19  C   UNL     1      34.009   7.706 -14.186  1.00  0.00    -0.027 C 
HETATM   20  C   UNL     1      33.388   8.837 -13.796  1.00  0.00    -0.027 C 
BRANCH  20  21
HETATM   21  C   UNL     1      32.632   9.807 -14.670  1.00  0.00     0.053 C 
BRANCH  21  22
HETATM   22  C   UNL     1      31.181   9.403 -14.792  1.00  0.00    -0.027 C 
HETATM   23  C   UNL     1      30.497   9.155 -15.925  1.00  0.00    -0.031 C 
BRANCH  23  24
HETATM   24  C   UNL     1      31.027   9.247 -17.332  1.00  0.00     0.022 C 
HETATM   25  C   UNL     1      31.384   7.884 -17.911  1.00  0.00     0.009 C 
ENDBRANCH  23  24
ENDBRANCH  21  22
ENDBRANCH  20  21
ENDBRANCH  18  19
ENDBRANCH  17  18
ENDBRANCH  15  16
ENDBRANCH  14  15
ENDBRANCH  12  13
ENDBRANCH  11  12
ENDBRANCH   9  10
ENDBRANCH   8   9
ENDBRANCH   6   7
ENDBRANCH   5   6
ENDBRANCH   3   5
ENDBRANCH   1   3
TORSDOF 15
ENDMDL
MODEL 7
REMARK VINA RESULT:      -4.6      4.491      7.910
REMARK  15 active torsions:
REMARK  status: ('A' for Active; 'I' for Inactive)
REMARK    1  A    between atoms: O_1  and  C_23 
REMARK    2  A    between atoms: C_3  and  C_7 
REMARK    3  A    between atoms: C_3  and  C_8 
REMARK    4  A    between atoms: C_4  and  C_10 
REMARK    5  A    between atoms: C_4  and  C_11 
REMARK    6  A    between atoms: C_5  and  C_12 
REMARK    7  A    between atoms: C_5  and  C_13 
REMARK    8  A    between atoms: C_6  and  C_15 
REMARK    9  A    between atoms: C_6  and  C_16 
REMARK   10  A    between atoms: C_7  and  C_23 
REMARK   11  A    between atoms: C_9  and  C_17 
REMARK   12  A    between atoms: C_9  and  C_18 
REMARK   13  A    between atoms: C_14  and  C_19 
REMARK   14  A    between atoms: C_14  and  C_20 
REMARK   15  A    between atoms: C_21  and  C_22 
ROOT
HETATM    1  O   UNL     1      27.894  10.551  -9.487  1.00  0.00    -0.776 OA
HETATM    2  H   UNL     1      28.358   9.717  -9.328  1.00  0.00     0.167 HD
ENDROOT
BRANCH   1   3
HETATM    3  C   UNL     1      28.539  11.736  -9.437  1.00  0.00     0.139 C 
HETATM    4  O   UNL     1      28.571  12.373  -8.393  1.00  0.00    -0.650 OA
BRANCH   3   5
HETATM    5  C   UNL     1      29.219  12.268 -10.666  1.00  0.00     0.113 C 
BRANCH   5   6
HETATM    6  C   UNL     1      30.642  11.711 -10.788  1.00  0.00     0.037 C 
BRANCH   6   7
HETATM    7  C   UNL     1      31.101  11.734 -12.227  1.00  0.00    -0.030 C 
HETATM    8  C   UNL     1      31.816  10.784 -12.866  1.00  0.00    -0.027 C 
BRANCH   8   9
HETATM    9  C   UNL     1      32.327   9.477 -12.299  1.00  0.00     0.053 C 
BRANCH   9  10
HETATM   10  C   UNL     1      33.734   9.202 -12.767  1.00  0.00    -0.027 C 
HETATM   11  C   UNL     1      34.082   8.367 -13.762  1.00  0.00    -0.027 C 
BRANCH  11  12
HETATM   12  C   UNL     1      33.123   7.595 -14.631  1.00  0.00     0.053 C 
BRANCH  12  13
HETATM   13  C   UNL     1      33.159   6.124 -14.298  1.00  0.00    -0.027 C 
HETATM   14  C   UNL     1      32.184   5.411 -13.705  1.00  0.00    -0.027 C 
BRANCH  14  15
HETATM   15  C   UNL     1      30.870   5.949 -13.206  1.00  0.00     0.053 C 
BRANCH  15  16
HETATM   16  C   UNL     1      30.450   5.146 -11.994  1.00  0.00    -0.027 C 
HETATM   17  C   UNL     1      30.627   5.454 -10.694  1.00  0.00    -0.027 C 
BRANCH  17  18
HETATM   18  C   UNL     1      31.274   6.693 -10.133  1.00  0.00     0.053 C 
BRANCH  18  19
HETATM   19  C   UNL     1      32.779   6.595 -10.219  1.00  0.00    -0.027 C 
HETATM   20  C   UNL     1      33.681   6.980  -9.294  1.00  0.00    -0.027 C 
BRANCH  20  21
HETATM   21  C   UNL     1      33.395   7.550  -7.926  1.00  0.00     0.053 C 
BRANCH  21  22
HETATM   22  C   UNL     1      33.213   6.447  -6.910  1.00  0.00    -0.027 C 
HETATM   23  C   UNL     1      32.069   6.079  -6.303  1.00  0.00    -0.031 C 
BRANCH  23  24
HETATM   24  C   UNL     1      30.711   6.704  -6.492  1.00  0.00     0.022 C 
HETATM   25  C   UNL     1      30.520   7.951  -5.637  1.00  0.00     0.009 C 
ENDBRANCH  23  24
ENDBRANCH  21  22
ENDBRANCH  20  21
ENDBRANCH  18  19
ENDBRANCH  17  18
ENDBRANCH  15  16
ENDBRANCH  14  15
ENDBRANCH  12  13
ENDBRANCH  11  12
ENDBRANCH   9  10
ENDBRANCH   8   9
ENDBRANCH   6   7
ENDBRANCH   5   6
ENDBRANCH   3   5
ENDBRANCH   1   3
TORSDOF 15
ENDMDL
MODEL 8
REMARK VINA RESULT:      -4.6     20.146     22.384
REMARK  15 active torsions:
REMARK  status: ('A' for Active; 'I' for Inactive)
REMARK    1  A    between atoms: O_1  and  C_23 
REMARK    2  A    between atoms: C_3  and  C_7 
REMARK    3  A    between atoms: C_3  and  C_8 
REMARK    4  A    between atoms: C_4  and  C_10 
REMARK    5  A    between atoms: C_4  and  C_11 
REMARK    6  A    between atoms: C_5  and  C_12 
REMARK    7  A    between atoms: C_5  and  C_13 
REMARK    8  A    between atoms: C_6  and  C_15 
REMARK    9  A    between atoms: C_6  and  C_16 
REMARK   10  A    between atoms: C_7  and  C_23 
REMARK   11  A    between atoms: C_9  and  C_17 
REMARK   12  A    between atoms: C_9  and  C_18 
REMARK   13  A    between atoms: C_14  and  C_19 
REMARK   14  A    between atoms: C_14  and  C_20 
REMARK   15  A    between atoms: C_21  and  C_22 
ROOT
HETATM    1  O   UNL     1      48.910  -7.445 -15.460  1.00  0.00    -0.776 OA
HETATM    2  H   UNL     1      49.559  -7.932 -14.934  1.00  0.00     0.167 HD
ENDROOT
BRANCH   1   3
HETATM    3  C   UNL     1      47.954  -6.691 -14.877  1.00  0.00     0.139 C 
HETATM    4  O   UNL     1      47.570  -6.955 -13.746  1.00  0.00    -0.650 OA
BRANCH   3   5
HETATM    5  C   UNL     1      47.367  -5.525 -15.620  1.00  0.00     0.113 C 
BRANCH   5   6
HETATM    6  C   UNL     1      47.785  -5.549 -17.095  1.00  0.00     0.037 C 
BRANCH   6   7
HETATM    7  C   UNL     1      46.597  -5.841 -17.980  1.00  0.00    -0.030 C 
HETATM    8  C   UNL     1      46.567  -5.827 -19.329  1.00  0.00    -0.027 C 
BRANCH   8   9
HETATM    9  C   UNL     1      47.709  -5.518 -20.273  1.00  0.00     0.053 C 
BRANCH   9  10
HETATM   10  C   UNL     1      48.039  -6.716 -21.127  1.00  0.00    -0.027 C 
HETATM   11  C   UNL     1      47.830  -6.818 -22.452  1.00  0.00    -0.027 C 
BRANCH  11  12
HETATM   12  C   UNL     1      47.281  -5.729 -23.337  1.00  0.00     0.053 C 
BRANCH  12  13
HETATM   13  C   UNL     1      45.782  -5.840 -23.459  1.00  0.00    -0.027 C 
HETATM   14  C   UNL     1      45.060  -5.760 -24.593  1.00  0.00    -0.027 C 
BRANCH  14  15
HETATM   15  C   UNL     1      45.602  -5.493 -25.972  1.00  0.00     0.053 C 
BRANCH  15  16
HETATM   16  C   UNL     1      45.601  -6.791 -26.748  1.00  0.00    -0.027 C 
HETATM   17  C   UNL     1      46.565  -7.274 -27.557  1.00  0.00    -0.027 C 
BRANCH  17  18
HETATM   18  C   UNL     1      47.895  -6.638 -27.867  1.00  0.00     0.053 C 
BRANCH  18  19
HETATM   19  C   UNL     1      48.637  -6.305 -26.594  1.00  0.00    -0.027 C 
HETATM   20  C   UNL     1      49.419  -7.125 -25.862  1.00  0.00    -0.027 C 
BRANCH  20  21
HETATM   21  C   UNL     1      49.782  -8.555 -26.175  1.00  0.00     0.053 C 
BRANCH  21  22
HETATM   22  C   UNL     1      49.635  -9.428 -24.950  1.00  0.00    -0.027 C 
HETATM   23  C   UNL     1      48.529 -10.082 -24.544  1.00  0.00    -0.031 C 
BRANCH  23  24
HETATM   24  C   UNL     1      47.182 -10.072 -25.217  1.00  0.00     0.022 C 
HETATM   25  C   UNL     1      46.097  -9.457 -24.342  1.00  0.00     0.009 C 
ENDBRANCH  23  24
ENDBRANCH  21  22
ENDBRANCH  20  21
ENDBRANCH  18  19
ENDBRANCH  17  18
ENDBRANCH  15  16
ENDBRANCH  14  15
ENDBRANCH  12  13
ENDBRANCH  11  12
ENDBRANCH   9  10
ENDBRANCH   8   9
ENDBRANCH   6   7
ENDBRANCH   5   6
ENDBRANCH   3   5
ENDBRANCH   1   3
TORSDOF 15
ENDMDL
MODEL 9
REMARK VINA RESULT:      -4.5      2.909      5.834
REMARK  15 active torsions:
REMARK  status: ('A' for Active; 'I' for Inactive)
REMARK    1  A    between atoms: O_1  and  C_23 
REMARK    2  A    between atoms: C_3  and  C_7 
REMARK    3  A    between atoms: C_3  and  C_8 
REMARK    4  A    between atoms: C_4  and  C_10 
REMARK    5  A    between atoms: C_4  and  C_11 
REMARK    6  A    between atoms: C_5  and  C_12 
REMARK    7  A    between atoms: C_5  and  C_13 
REMARK    8  A    between atoms: C_6  and  C_15 
REMARK    9  A    between atoms: C_6  and  C_16 
REMARK   10  A    between atoms: C_7  and  C_23 
REMARK   11  A    between atoms: C_9  and  C_17 
REMARK   12  A    between atoms: C_9  and  C_18 
REMARK   13  A    between atoms: C_14  and  C_19 
REMARK   14  A    between atoms: C_14  and  C_20 
REMARK   15  A    between atoms: C_21  and  C_22 
ROOT
HETATM    1  O   UNL     1      33.777   4.546 -15.811  1.00  0.00    -0.776 OA
HETATM    2  H   UNL     1      34.036   3.658 -15.527  1.00  0.00     0.167 HD
ENDROOT
BRANCH   1   3
HETATM    3  C   UNL     1      32.487   4.943 -15.790  1.00  0.00     0.139 C 
HETATM    4  O   UNL     1      31.776   4.772 -16.770  1.00  0.00    -0.650 OA
BRANCH   3   5
HETATM    5  C   UNL     1      31.927   5.593 -14.557  1.00  0.00     0.113 C 
BRANCH   5   6
HETATM    6  C   UNL     1      32.551   6.976 -14.335  1.00  0.00     0.037 C 
BRANCH   6   7
HETATM    7  C   UNL     1      32.111   7.552 -13.011  1.00  0.00    -0.030 C 
HETATM    8  C   UNL     1      31.516   8.746 -12.802  1.00  0.00    -0.027 C 
BRANCH   8   9
HETATM    9  C   UNL     1      31.148   9.786 -13.839  1.00  0.00     0.053 C 
BRANCH   9  10
HETATM   10  C   UNL     1      29.796   9.492 -14.438  1.00  0.00    -0.027 C 
HETATM   11  C   UNL     1      28.804  10.383 -14.613  1.00  0.00    -0.027 C 
BRANCH  11  12
HETATM   12  C   UNL     1      28.884  11.854 -14.295  1.00  0.00     0.053 C 
BRANCH  12  13
HETATM   13  C   UNL     1      28.659  12.685 -15.533  1.00  0.00    -0.027 C 
HETATM   14  C   UNL     1      29.548  12.918 -16.517  1.00  0.00    -0.027 C 
BRANCH  14  15
HETATM   15  C   UNL     1      30.972  12.432 -16.558  1.00  0.00     0.053 C 
BRANCH  15  16
HETATM   16  C   UNL     1      31.327  12.101 -17.991  1.00  0.00    -0.027 C 
HETATM   17  C   UNL     1      31.320  10.893 -18.589  1.00  0.00    -0.027 C 
BRANCH  17  18
HETATM   18  C   UNL     1      30.935   9.575 -17.970  1.00  0.00     0.053 C 
BRANCH  18  19
HETATM   19  C   UNL     1      32.157   8.848 -17.460  1.00  0.00    -0.027 C 
HETATM   20  C   UNL     1      32.794   7.808 -18.036  1.00  0.00    -0.027 C 
BRANCH  20  21
HETATM   21  C   UNL     1      32.466   7.159 -19.358  1.00  0.00     0.053 C 
BRANCH  21  22
HETATM   22  C   UNL     1      33.672   6.443 -19.920  1.00  0.00    -0.027 C 
HETATM   23  C   UNL     1      33.677   5.421 -20.797  1.00  0.00    -0.031 C 
BRANCH  23  24
HETATM   24  C   UNL     1      32.471   4.749 -21.400  1.00  0.00     0.022 C 
HETATM   25  C   UNL     1      32.118   5.308 -22.772  1.00  0.00     0.009 C 
ENDBRANCH  23  24
ENDBRANCH  21  22
ENDBRANCH  20  21
ENDBRANCH  18  19
ENDBRANCH  17  18
ENDBRANCH  15  16
ENDBRANCH  14  15
ENDBRANCH  12  13
ENDBRANCH  11  12
ENDBRANCH   9  10
ENDBRANCH   8   9
ENDBRANCH   6   7
ENDBRANCH   5   6
ENDBRANCH   3   5
ENDBRANCH   1   3
TORSDOF 15
ENDMDL
MODEL 10
REMARK VINA RESULT:      -4.5      2.929      4.219
REMARK  15 active torsions:
REMARK  status: ('A' for Active; 'I' for Inactive)
REMARK    1  A    between atoms: O_1  and  C_23 
REMARK    2  A    between atoms: C_3  and  C_7 
REMARK    3  A    between atoms: C_3  and  C_8 
REMARK    4  A    between atoms: C_4  and  C_10 
REMARK    5  A    between atoms: C_4  and  C_11 
REMARK    6  A    between atoms: C_5  and  C_12 
REMARK    7  A    between atoms: C_5  and  C_13 
REMARK    8  A    between atoms: C_6  and  C_15 
REMARK    9  A    between atoms: C_6  and  C_16 
REMARK   10  A    between atoms: C_7  and  C_23 
REMARK   11  A    between atoms: C_9  and  C_17 
REMARK   12  A    between atoms: C_9  and  C_18 
REMARK   13  A    between atoms: C_14  and  C_19 
REMARK   14  A    between atoms: C_14  and  C_20 
REMARK   15  A    between atoms: C_21  and  C_22 
ROOT
HETATM    1  O   UNL     1      28.657  12.151 -18.032  1.00  0.00    -0.776 OA
HETATM    2  H   UNL     1      28.022  12.852 -18.233  1.00  0.00     0.167 HD
ENDROOT
BRANCH   1   3
HETATM    3  C   UNL     1      28.826  11.096 -18.858  1.00  0.00     0.139 C 
HETATM    4  O   UNL     1      27.857  10.450 -19.232  1.00  0.00    -0.650 OA
BRANCH   3   5
HETATM    5  C   UNL     1      30.206  10.723 -19.319  1.00  0.00     0.113 C 
BRANCH   5   6
HETATM    6  C   UNL     1      30.539   9.277 -18.933  1.00  0.00     0.037 C 
BRANCH   6   7
HETATM    7  C   UNL     1      30.818   9.172 -17.452  1.00  0.00    -0.030 C 
HETATM    8  C   UNL     1      30.927   8.040 -16.725  1.00  0.00    -0.027 C 
BRANCH   8   9
HETATM    9  C   UNL     1      30.798   6.614 -17.215  1.00  0.00     0.053 C 
BRANCH   9  10
HETATM   10  C   UNL     1      32.106   6.119 -17.778  1.00  0.00    -0.027 C 
HETATM   11  C   UNL     1      32.262   5.467 -18.945  1.00  0.00    -0.027 C 
BRANCH  11  12
HETATM   12  C   UNL     1      31.164   5.164 -19.930  1.00  0.00     0.053 C 
BRANCH  12  13
HETATM   13  C   UNL     1      30.735   6.412 -20.660  1.00  0.00    -0.027 C 
HETATM   14  C   UNL     1      30.623   6.565 -21.993  1.00  0.00    -0.027 C 
BRANCH  14  15
HETATM   15  C   UNL     1      30.953   5.530 -23.035  1.00  0.00     0.053 C 
BRANCH  15  16
HETATM   16  C   UNL     1      32.457   5.383 -23.108  1.00  0.00    -0.027 C 
HETATM   17  C   UNL     1      33.306   5.975 -23.972  1.00  0.00    -0.027 C 
BRANCH  17  18
HETATM   18  C   UNL     1      32.957   6.948 -25.068  1.00  0.00     0.053 C 
BRANCH  18  19
HETATM   19  C   UNL     1      33.831   8.178 -24.987  1.00  0.00    -0.027 C 
HETATM   20  C   UNL     1      33.592   9.311 -24.296  1.00  0.00    -0.027 C 
BRANCH  20  21
HETATM   21  C   UNL     1      32.416   9.595 -23.393  1.00  0.00     0.053 C 
BRANCH  21  22
HETATM   22  C   UNL     1      32.863  10.306 -22.137  1.00  0.00    -0.027 C 
HETATM   23  C   UNL     1      33.409   9.751 -21.037  1.00  0.00    -0.031 C 
BRANCH  23  24
HETATM   24  C   UNL     1      33.679   8.287 -20.810  1.00  0.00     0.022 C 
HETATM   25  C   UNL     1      35.169   7.968 -20.769  1.00  0.00     0.009 C 
ENDBRANCH  23  24
ENDBRANCH  21  22
ENDBRANCH  20  21
ENDBRANCH  18  19
ENDBRANCH  17  18
ENDBRANCH  15  16
ENDBRANCH  14  15
ENDBRANCH  12  13
ENDBRANCH  11  12
ENDBRANCH   9  10
ENDBRANCH   8   9
ENDBRANCH   6   7
ENDBRANCH   5   6
ENDBRANCH   3   5
ENDBRANCH   1   3
TORSDOF 15
ENDMDL
MODEL 11
REMARK VINA RESULT:      -4.5      6.050      9.821
REMARK  15 active torsions:
REMARK  status: ('A' for Active; 'I' for Inactive)
REMARK    1  A    between atoms: O_1  and  C_23 
REMARK    2  A    between atoms: C_3  and  C_7 
REMARK    3  A    between atoms: C_3  and  C_8 
REMARK    4  A    between atoms: C_4  and  C_10 
REMARK    5  A    between atoms: C_4  and  C_11 
REMARK    6  A    between atoms: C_5  and  C_12 
REMARK    7  A    between atoms: C_5  and  C_13 
REMARK    8  A    between atoms: C_6  and  C_15 
REMARK    9  A    between atoms: C_6  and  C_16 
REMARK   10  A    between atoms: C_7  and  C_23 
REMARK   11  A    between atoms: C_9  and  C_17 
REMARK   12  A    between atoms: C_9  and  C_18 
REMARK   13  A    between atoms: C_14  and  C_19 
REMARK   14  A    between atoms: C_14  and  C_20 
REMARK   15  A    between atoms: C_21  and  C_22 
ROOT
HETATM    1  O   UNL     1      33.630   8.232 -15.797  1.00  0.00    -0.776 OA
HETATM    2  H   UNL     1      33.425   9.034 -15.297  1.00  0.00     0.167 HD
ENDROOT
BRANCH   1   3
HETATM    3  C   UNL     1      32.662   7.367 -16.169  1.00  0.00     0.139 C 
HETATM    4  O   UNL     1      32.771   6.738 -17.212  1.00  0.00    -0.650 OA
BRANCH   3   5
HETATM    5  C   UNL     1      31.454   7.178 -15.296  1.00  0.00     0.113 C 
BRANCH   5   6
HETATM    6  C   UNL     1      31.864   6.769 -13.877  1.00  0.00     0.037 C 
BRANCH   6   7
HETATM    7  C   UNL     1      30.812   7.188 -12.878  1.00  0.00    -0.030 C 
HETATM    8  C   UNL     1      30.419   6.508 -11.779  1.00  0.00    -0.027 C 
BRANCH   8   9
HETATM    9  C   UNL     1      30.935   5.173 -11.288  1.00  0.00     0.053 C 
BRANCH   9  10
HETATM   10  C   UNL     1      31.432   5.278  -9.869  1.00  0.00    -0.027 C 
HETATM   11  C   UNL     1      32.711   5.462  -9.496  1.00  0.00    -0.027 C 
BRANCH  11  12
HETATM   12  C   UNL     1      33.875   5.655 -10.432  1.00  0.00     0.053 C 
BRANCH  12  13
HETATM   13  C   UNL     1      33.986   7.096 -10.863  1.00  0.00    -0.027 C 
HETATM   14  C   UNL     1      33.682   8.181 -10.125  1.00  0.00    -0.027 C 
BRANCH  14  15
HETATM   15  C   UNL     1      33.120   8.174  -8.729  1.00  0.00     0.053 C 
BRANCH  15  16
HETATM   16  C   UNL     1      31.746   8.806  -8.760  1.00  0.00    -0.027 C 
HETATM   17  C   UNL     1      30.765   8.703  -7.841  1.00  0.00    -0.027 C 
BRANCH  17  18
HETATM   18  C   UNL     1      30.813   7.943  -6.541  1.00  0.00     0.053 C 
BRANCH  18  19
HETATM   19  C   UNL     1      30.449   6.493  -6.758  1.00  0.00    -0.027 C 
HETATM   20  C   UNL     1      30.989   5.412  -6.158  1.00  0.00    -0.027 C 
BRANCH  20  21
HETATM   21  C   UNL     1      32.050   5.403  -5.085  1.00  0.00     0.053 C 
BRANCH  21  22
HETATM   22  C   UNL     1      33.431   5.476  -5.693  1.00  0.00    -0.027 C 
HETATM   23  C   UNL     1      34.257   6.540  -5.713  1.00  0.00    -0.031 C 
BRANCH  23  24
HETATM   24  C   UNL     1      33.975   7.906  -5.144  1.00  0.00     0.022 C 
HETATM   25  C   UNL     1      33.976   7.915  -3.620  1.00  0.00     0.009 C 
ENDBRANCH  23  24
ENDBRANCH  21  22
ENDBRANCH  20  21
ENDBRANCH  18  19
ENDBRANCH  17  18
ENDBRANCH  15  16
ENDBRANCH  14  15
ENDBRANCH  12  13
ENDBRANCH  11  12
ENDBRANCH   9  10
ENDBRANCH   8   9
ENDBRANCH   6   7
ENDBRANCH   5   6
ENDBRANCH   3   5
ENDBRANCH   1   3
TORSDOF 15
ENDMDL
MODEL 12
REMARK VINA RESULT:      -4.4      4.767      7.567
REMARK  15 active torsions:
REMARK  status: ('A' for Active; 'I' for Inactive)
REMARK    1  A    between atoms: O_1  and  C_23 
REMARK    2  A    between atoms: C_3  and  C_7 
REMARK    3  A    between atoms: C_3  and  C_8 
REMARK    4  A    between atoms: C_4  and  C_10 
REMARK    5  A    between atoms: C_4  and  C_11 
REMARK    6  A    between atoms: C_5  and  C_12 
REMARK    7  A    between atoms: C_5  and  C_13 
REMARK    8  A    between atoms: C_6  and  C_15 
REMARK    9  A    between atoms: C_6  and  C_16 
REMARK   10  A    between atoms: C_7  and  C_23 
REMARK   11  A    between atoms: C_9  and  C_17 
REMARK   12  A    between atoms: C_9  and  C_18 
REMARK   13  A    between atoms: C_14  and  C_19 
REMARK   14  A    between atoms: C_14  and  C_20 
REMARK   15  A    between atoms: C_21  and  C_22 
ROOT
HETATM    1  O   UNL     1      30.156   5.545 -11.412  1.00  0.00    -0.776 OA
HETATM    2  H   UNL     1      29.772   4.910 -12.033  1.00  0.00     0.167 HD
ENDROOT
BRANCH   1   3
HETATM    3  C   UNL     1      31.208   5.217 -10.631  1.00  0.00     0.139 C 
HETATM    4  O   UNL     1      32.153   4.602 -11.103  1.00  0.00    -0.650 OA
BRANCH   3   5
HETATM    5  C   UNL     1      31.213   5.613  -9.182  1.00  0.00     0.113 C 
BRANCH   5   6
HETATM    6  C   UNL     1      32.563   5.292  -8.532  1.00  0.00     0.037 C 
BRANCH   6   7
HETATM    7  C   UNL     1      32.375   4.879  -7.092  1.00  0.00    -0.030 C 
HETATM    8  C   UNL     1      32.292   5.692  -6.017  1.00  0.00    -0.027 C 
BRANCH   8   9
HETATM    9  C   UNL     1      32.368   7.204  -5.998  1.00  0.00     0.053 C 
BRANCH   9  10
HETATM   10  C   UNL     1      33.801   7.671  -6.038  1.00  0.00    -0.027 C 
HETATM   11  C   UNL     1      34.397   8.290  -7.073  1.00  0.00    -0.027 C 
BRANCH  11  12
HETATM   12  C   UNL     1      33.723   8.682  -8.363  1.00  0.00     0.053 C 
BRANCH  12  13
HETATM   13  C   UNL     1      34.737   9.135  -9.383  1.00  0.00    -0.027 C 
HETATM   14  C   UNL     1      34.865   8.681 -10.644  1.00  0.00    -0.027 C 
BRANCH  14  15
HETATM   15  C   UNL     1      34.048   7.588 -11.280  1.00  0.00     0.053 C 
BRANCH  15  16
HETATM   16  C   UNL     1      32.874   8.219 -11.995  1.00  0.00    -0.027 C 
HETATM   17  C   UNL     1      32.252   7.786 -13.110  1.00  0.00    -0.027 C 
BRANCH  17  18
HETATM   18  C   UNL     1      32.570   6.547 -13.906  1.00  0.00     0.053 C 
BRANCH  18  19
HETATM   19  C   UNL     1      31.352   6.072 -14.663  1.00  0.00    -0.027 C 
HETATM   20  C   UNL     1      31.007   6.367 -15.933  1.00  0.00    -0.027 C 
BRANCH  20  21
HETATM   21  C   UNL     1      31.790   7.201 -16.917  1.00  0.00     0.053 C 
BRANCH  21  22
HETATM   22  C   UNL     1      32.784   6.350 -17.672  1.00  0.00    -0.027 C 
HETATM   23  C   UNL     1      32.539   5.559 -18.735  1.00  0.00    -0.031 C 
BRANCH  23  24
HETATM   24  C   UNL     1      31.204   5.334 -19.397  1.00  0.00     0.022 C 
HETATM   25  C   UNL     1      30.932   6.332 -20.514  1.00  0.00     0.009 C 
ENDBRANCH  23  24
ENDBRANCH  21  22
ENDBRANCH  20  21
ENDBRANCH  18  19
ENDBRANCH  17  18
ENDBRANCH  15  16
ENDBRANCH  14  15
ENDBRANCH  12  13
ENDBRANCH  11  12
ENDBRANCH   9  10
ENDBRANCH   8   9
ENDBRANCH   6   7
ENDBRANCH   5   6
ENDBRANCH   3   5
ENDBRANCH   1   3
TORSDOF 15
ENDMDL
MODEL 13
REMARK VINA RESULT:      -4.4      3.095      6.037
REMARK  15 active torsions:
REMARK  status: ('A' for Active; 'I' for Inactive)
REMARK    1  A    between atoms: O_1  and  C_23 
REMARK    2  A    between atoms: C_3  and  C_7 
REMARK    3  A    between atoms: C_3  and  C_8 
REMARK    4  A    between atoms: C_4  and  C_10 
REMARK    5  A    between atoms: C_4  and  C_11 
REMARK    6  A    between atoms: C_5  and  C_12 
REMARK    7  A    between atoms: C_5  and  C_13 
REMARK    8  A    between atoms: C_6  and  C_15 
REMARK    9  A    between atoms: C_6  and  C_16 
REMARK   10  A    between atoms: C_7  and  C_23 
REMARK   11  A    between atoms: C_9  and  C_17 
REMARK   12  A    between atoms: C_9  and  C_18 
REMARK   13  A    between atoms: C_14  and  C_19 
REMARK   14  A    between atoms: C_14  and  C_20 
REMARK   15  A    between atoms: C_21  and  C_22 
ROOT
HETATM    1  O   UNL     1      28.973  11.241 -13.454  1.00  0.00    -0.776 OA
HETATM    2  H   UNL     1      28.640  10.354 -13.645  1.00  0.00     0.167 HD
ENDROOT
BRANCH   1   3
HETATM    3  C   UNL     1      29.570  11.531 -12.278  1.00  0.00     0.139 C 
HETATM    4  O   UNL     1      28.896  11.875 -11.317  1.00  0.00    -0.650 OA
BRANCH   3   5
HETATM    5  C   UNL     1      31.064  11.427 -12.154  1.00  0.00     0.113 C 
BRANCH   5   6
HETATM    6  C   UNL     1      31.453  10.461 -11.029  1.00  0.00     0.037 C 
BRANCH   6   7
HETATM    7  C   UNL     1      32.654  10.979 -10.275  1.00  0.00    -0.030 C 
HETATM    8  C   UNL     1      33.653  10.247  -9.736  1.00  0.00    -0.027 C 
BRANCH   8   9
HETATM    9  C   UNL     1      33.807   8.742  -9.759  1.00  0.00     0.053 C 
BRANCH   9  10
HETATM   10  C   UNL     1      33.384   8.139  -8.443  1.00  0.00    -0.027 C 
HETATM   11  C   UNL     1      32.537   7.105  -8.289  1.00  0.00    -0.027 C 
BRANCH  11  12
HETATM   12  C   UNL     1      31.900   6.323  -9.408  1.00  0.00     0.053 C 
BRANCH  12  13
HETATM   13  C   UNL     1      32.834   5.253  -9.916  1.00  0.00    -0.027 C 
HETATM   14  C   UNL     1      33.013   4.887 -11.200  1.00  0.00    -0.027 C 
BRANCH  14  15
HETATM   15  C   UNL     1      32.277   5.441 -12.391  1.00  0.00     0.053 C 
BRANCH  15  16
HETATM   16  C   UNL     1      32.922   6.750 -12.788  1.00  0.00    -0.027 C 
HETATM   17  C   UNL     1      32.332   7.832 -13.335  1.00  0.00    -0.027 C 
BRANCH  17  18
HETATM   18  C   UNL     1      30.873   8.002 -13.667  1.00  0.00     0.053 C 
BRANCH  18  19
HETATM   19  C   UNL     1      30.678   8.146 -15.158  1.00  0.00    -0.027 C 
HETATM   20  C   UNL     1      30.562   7.159 -16.070  1.00  0.00    -0.027 C 
BRANCH  20  21
HETATM   21  C   UNL     1      30.546   5.674 -15.806  1.00  0.00     0.053 C 
BRANCH  21  22
HETATM   22  C   UNL     1      31.933   5.089 -15.936  1.00  0.00    -0.027 C 
HETATM   23  C   UNL     1      32.646   4.927 -17.068  1.00  0.00    -0.031 C 
BRANCH  23  24
HETATM   24  C   UNL     1      32.205   5.279 -18.465  1.00  0.00     0.022 C 
HETATM   25  C   UNL     1      33.055   6.382 -19.084  1.00  0.00     0.009 C 
ENDBRANCH  23  24
ENDBRANCH  21  22
ENDBRANCH  20  21
ENDBRANCH  18  19
ENDBRANCH  17  18
ENDBRANCH  15  16
ENDBRANCH  14  15
ENDBRANCH  12  13
ENDBRANCH  11  12
ENDBRANCH   9  10
ENDBRANCH   8   9
ENDBRANCH   6   7
ENDBRANCH   5   6
ENDBRANCH   3   5
ENDBRANCH   1   3
TORSDOF 15
ENDMDL
MODEL 14
REMARK VINA RESULT:      -4.4      7.487     11.303
REMARK  15 active torsions:
REMARK  status: ('A' for Active; 'I' for Inactive)
REMARK    1  A    between atoms: O_1  and  C_23 
REMARK    2  A    between atoms: C_3  and  C_7 
REMARK    3  A    between atoms: C_3  and  C_8 
REMARK    4  A    between atoms: C_4  and  C_10 
REMARK    5  A    between atoms: C_4  and  C_11 
REMARK    6  A    between atoms: C_5  and  C_12 
REMARK    7  A    between atoms: C_5  and  C_13 
REMARK    8  A    between atoms: C_6  and  C_15 
REMARK    9  A    between atoms: C_6  and  C_16 
REMARK   10  A    between atoms: C_7  and  C_23 
REMARK   11  A    between atoms: C_9  and  C_17 
REMARK   12  A    between atoms: C_9  and  C_18 
REMARK   13  A    between atoms: C_14  and  C_19 
REMARK   14  A    between atoms: C_14  and  C_20 
REMARK   15  A    between atoms: C_21  and  C_22 
ROOT
HETATM    1  O   UNL     1      32.703   4.112 -11.720  1.00  0.00    -0.776 OA
HETATM    2  H   UNL     1      33.648   4.037 -11.913  1.00  0.00     0.167 HD
ENDROOT
BRANCH   1   3
HETATM    3  C   UNL     1      32.092   5.315 -11.657  1.00  0.00     0.139 C 
HETATM    4  O   UNL     1      32.579   6.280 -12.228  1.00  0.00    -0.650 OA
BRANCH   3   5
HETATM    5  C   UNL     1      30.811   5.460 -10.886  1.00  0.00     0.113 C 
BRANCH   5   6
HETATM    6  C   UNL     1      31.059   6.140  -9.535  1.00  0.00     0.037 C 
BRANCH   6   7
HETATM    7  C   UNL     1      31.967   5.295  -8.673  1.00  0.00    -0.030 C 
HETATM    8  C   UNL     1      31.801   4.998  -7.367  1.00  0.00    -0.027 C 
BRANCH   8   9
HETATM    9  C   UNL     1      30.673   5.437  -6.458  1.00  0.00     0.053 C 
BRANCH   9  10
HETATM   10  C   UNL     1      31.181   5.705  -5.063  1.00  0.00    -0.027 C 
HETATM   11  C   UNL     1      31.057   6.865  -4.392  1.00  0.00    -0.027 C 
BRANCH  11  12
HETATM   12  C   UNL     1      30.337   8.091  -4.890  1.00  0.00     0.053 C 
BRANCH  12  13
HETATM   13  C   UNL     1      30.619   9.278  -4.003  1.00  0.00    -0.027 C 
HETATM   14  C   UNL     1      29.976  10.460  -4.016  1.00  0.00    -0.027 C 
BRANCH  14  15
HETATM   15  C   UNL     1      28.871  10.859  -4.958  1.00  0.00     0.053 C 
BRANCH  15  16
HETATM   16  C   UNL     1      29.176  12.238  -5.501  1.00  0.00    -0.027 C 
HETATM   17  C   UNL     1      29.317  12.608  -6.789  1.00  0.00    -0.027 C 
BRANCH  17  18
HETATM   18  C   UNL     1      29.184  11.732  -8.007  1.00  0.00     0.053 C 
BRANCH  18  19
HETATM   19  C   UNL     1      30.477  11.705  -8.788  1.00  0.00    -0.027 C 
HETATM   20  C   UNL     1      31.587  10.989  -8.514  1.00  0.00    -0.027 C 
BRANCH  20  21
HETATM   21  C   UNL     1      31.778  10.003  -7.389  1.00  0.00     0.053 C 
BRANCH  21  22
HETATM   22  C   UNL     1      32.598   8.819  -7.845  1.00  0.00    -0.027 C 
HETATM   23  C   UNL     1      33.765   8.387  -7.327  1.00  0.00    -0.031 C 
BRANCH  23  24
HETATM   24  C   UNL     1      34.522   9.006  -6.182  1.00  0.00     0.022 C 
HETATM   25  C   UNL     1      34.268   8.292  -4.860  1.00  0.00     0.009 C 
ENDBRANCH  23  24
ENDBRANCH  21  22
ENDBRANCH  20  21
ENDBRANCH  18  19
ENDBRANCH  17  18
ENDBRANCH  15  16
ENDBRANCH  14  15
ENDBRANCH  12  13
ENDBRANCH  11  12
ENDBRANCH   9  10
ENDBRANCH   8   9
ENDBRANCH   6   7
ENDBRANCH   5   6
ENDBRANCH   3   5
ENDBRANCH   1   3
TORSDOF 15
ENDMDL
MODEL 15
REMARK VINA RESULT:      -4.4      3.979      7.317
REMARK  15 active torsions:
REMARK  status: ('A' for Active; 'I' for Inactive)
REMARK    1  A    between atoms: O_1  and  C_23 
REMARK    2  A    between atoms: C_3  and  C_7 
REMARK    3  A    between atoms: C_3  and  C_8 
REMARK    4  A    between atoms: C_4  and  C_10 
REMARK    5  A    between atoms: C_4  and  C_11 
REMARK    6  A    between atoms: C_5  and  C_12 
REMARK    7  A    between atoms: C_5  and  C_13 
REMARK    8  A    between atoms: C_6  and  C_15 
REMARK    9  A    between atoms: C_6  and  C_16 
REMARK   10  A    between atoms: C_7  and  C_23 
REMARK   11  A    between atoms: C_9  and  C_17 
REMARK   12  A    between atoms: C_9  and  C_18 
REMARK   13  A    between atoms: C_14  and  C_19 
REMARK   14  A    between atoms: C_14  and  C_20 
REMARK   15  A    between atoms: C_21  and  C_22 
ROOT
HETATM    1  O   UNL     1      29.892   4.512 -17.308  1.00  0.00    -0.776 OA
HETATM    2  H   UNL     1      30.098   4.046 -18.129  1.00  0.00     0.167 HD
ENDROOT
BRANCH   1   3
HETATM    3  C   UNL     1      30.789   5.332 -16.719  1.00  0.00     0.139 C 
HETATM    4  O   UNL     1      31.757   4.863 -16.138  1.00  0.00    -0.650 OA
BRANCH   3   5
HETATM    5  C   UNL     1      30.595   6.820 -16.783  1.00  0.00     0.113 C 
BRANCH   5   6
HETATM    6  C   UNL     1      31.491   7.533 -15.764  1.00  0.00     0.037 C 
BRANCH   6   7
HETATM    7  C   UNL     1      30.711   7.872 -14.516  1.00  0.00    -0.030 C 
HETATM    8  C   UNL     1      31.077   7.631 -13.239  1.00  0.00    -0.027 C 
BRANCH   8   9
HETATM    9  C   UNL     1      32.348   6.967 -12.754  1.00  0.00     0.053 C 
BRANCH   9  10
HETATM   10  C   UNL     1      32.199   5.467 -12.741  1.00  0.00    -0.027 C 
HETATM   11  C   UNL     1      31.627   4.743 -11.762  1.00  0.00    -0.027 C 
BRANCH  11  12
HETATM   12  C   UNL     1      30.979   5.306 -10.524  1.00  0.00     0.053 C 
BRANCH  12  13
HETATM   13  C   UNL     1      31.972   5.402  -9.392  1.00  0.00    -0.027 C 
HETATM   14  C   UNL     1      31.944   6.280  -8.372  1.00  0.00    -0.027 C 
BRANCH  14  15
HETATM   15  C   UNL     1      30.937   7.383  -8.178  1.00  0.00     0.053 C 
BRANCH  15  16
HETATM   16  C   UNL     1      31.007   8.313  -9.369  1.00  0.00    -0.027 C 
HETATM   17  C   UNL     1      32.053   9.059  -9.777  1.00  0.00    -0.027 C 
BRANCH  17  18
HETATM   18  C   UNL     1      33.420   9.130  -9.149  1.00  0.00     0.053 C 
BRANCH  18  19
HETATM   19  C   UNL     1      34.403   8.274  -9.914  1.00  0.00    -0.027 C 
HETATM   20  C   UNL     1      35.144   8.630 -10.983  1.00  0.00    -0.027 C 
BRANCH  20  21
HETATM   21  C   UNL     1      35.206   9.989 -11.635  1.00  0.00     0.053 C 
BRANCH  21  22
HETATM   22  C   UNL     1      34.680   9.931 -13.050  1.00  0.00    -0.027 C 
HETATM   23  C   UNL     1      33.505  10.410 -13.503  1.00  0.00    -0.031 C 
BRANCH  23  24
HETATM   24  C   UNL     1      32.441  11.097 -12.687  1.00  0.00     0.022 C 
HETATM   25  C   UNL     1      32.601  12.612 -12.678  1.00  0.00     0.009 C 
ENDBRANCH  23  24
ENDBRANCH  21  22
ENDBRANCH  20  21
ENDBRANCH  18  19
ENDBRANCH  17  18
ENDBRANCH  15  16
ENDBRANCH  14  15
ENDBRANCH  12  13
ENDBRANCH  11  12
ENDBRANCH   9  10
ENDBRANCH   8   9
ENDBRANCH   6   7
ENDBRANCH   5   6
ENDBRANCH   3   5
ENDBRANCH   1   3
TORSDOF 15
ENDMDL
MODEL 16
REMARK VINA RESULT:      -4.4      3.788      6.541
REMARK  15 active torsions:
REMARK  status: ('A' for Active; 'I' for Inactive)
REMARK    1  A    between atoms: O_1  and  C_23 
REMARK    2  A    between atoms: C_3  and  C_7 
REMARK    3  A    between atoms: C_3  and  C_8 
REMARK    4  A    between atoms: C_4  and  C_10 
REMARK    5  A    between atoms: C_4  and  C_11 
REMARK    6  A    between atoms: C_5  and  C_12 
REMARK    7  A    between atoms: C_5  and  C_13 
REMARK    8  A    between atoms: C_6  and  C_15 
REMARK    9  A    between atoms: C_6  and  C_16 
REMARK   10  A    between atoms: C_7  and  C_23 
REMARK   11  A    between atoms: C_9  and  C_17 
REMARK   12  A    between atoms: C_9  and  C_18 
REMARK   13  A    between atoms: C_14  and  C_19 
REMARK   14  A    between atoms: C_14  and  C_20 
REMARK   15  A    between atoms: C_21  and  C_22 
ROOT
HETATM    1  O   UNL     1      28.061  11.983 -10.132  1.00  0.00    -0.776 OA
HETATM    2  H   UNL     1      28.412  12.073 -11.028  1.00  0.00     0.167 HD
ENDROOT
BRANCH   1   3
HETATM    3  C   UNL     1      28.851  12.135  -9.048  1.00  0.00     0.139 C 
HETATM    4  O   UNL     1      28.425  12.709  -8.055  1.00  0.00    -0.650 OA
BRANCH   3   5
HETATM    5  C   UNL     1      30.252  11.594  -9.064  1.00  0.00     0.113 C 
BRANCH   5   6
HETATM    6  C   UNL     1      30.248  10.066  -9.174  1.00  0.00     0.037 C 
BRANCH   6   7
HETATM    7  C   UNL     1      31.596   9.501  -8.798  1.00  0.00    -0.030 C 
HETATM    8  C   UNL     1      31.845   8.299  -8.235  1.00  0.00    -0.027 C 
BRANCH   8   9
HETATM    9  C   UNL     1      30.839   7.236  -7.849  1.00  0.00     0.053 C 
BRANCH   9  10
HETATM   10  C   UNL     1      31.420   5.856  -8.026  1.00  0.00    -0.027 C 
HETATM   11  C   UNL     1      31.427   5.148  -9.170  1.00  0.00    -0.027 C 
BRANCH  11  12
HETATM   12  C   UNL     1      30.906   5.629 -10.499  1.00  0.00     0.053 C 
BRANCH  12  13
HETATM   13  C   UNL     1      31.804   5.178 -11.625  1.00  0.00    -0.027 C 
HETATM   14  C   UNL     1      33.009   5.686 -11.943  1.00  0.00    -0.027 C 
BRANCH  14  15
HETATM   15  C   UNL     1      33.689   6.847 -11.268  1.00  0.00     0.053 C 
BRANCH  15  16
HETATM   16  C   UNL     1      33.936   7.926 -12.299  1.00  0.00    -0.027 C 
HETATM   17  C   UNL     1      33.047   8.799 -12.814  1.00  0.00    -0.027 C 
BRANCH  17  18
HETATM   18  C   UNL     1      31.587   8.922 -12.466  1.00  0.00     0.053 C 
BRANCH  18  19
HETATM   19  C   UNL     1      30.763   9.178 -13.706  1.00  0.00    -0.027 C 
HETATM   20  C   UNL     1      30.475   8.308 -14.695  1.00  0.00    -0.027 C 
BRANCH  20  21
HETATM   21  C   UNL     1      30.864   6.852 -14.767  1.00  0.00     0.053 C 
BRANCH  21  22
HETATM   22  C   UNL     1      30.759   6.336 -16.184  1.00  0.00    -0.027 C 
HETATM   23  C   UNL     1      31.765   6.160 -17.064  1.00  0.00    -0.031 C 
BRANCH  23  24
HETATM   24  C   UNL     1      33.223   6.458 -16.831  1.00  0.00     0.022 C 
HETATM   25  C   UNL     1      33.778   5.738 -15.609  1.00  0.00     0.009 C 
ENDBRANCH  23  24
ENDBRANCH  21  22
ENDBRANCH  20  21
ENDBRANCH  18  19
ENDBRANCH  17  18
ENDBRANCH  15  16
ENDBRANCH  14  15
ENDBRANCH  12  13
ENDBRANCH  11  12
ENDBRANCH   9  10
ENDBRANCH   8   9
ENDBRANCH   6   7
ENDBRANCH   5   6
ENDBRANCH   3   5
ENDBRANCH   1   3
TORSDOF 15
ENDMDL
MODEL 17
REMARK VINA RESULT:      -4.4      3.749      7.085
REMARK  15 active torsions:
REMARK  status: ('A' for Active; 'I' for Inactive)
REMARK    1  A    between atoms: O_1  and  C_23 
REMARK    2  A    between atoms: C_3  and  C_7 
REMARK    3  A    between atoms: C_3  and  C_8 
REMARK    4  A    between atoms: C_4  and  C_10 
REMARK    5  A    between atoms: C_4  and  C_11 
REMARK    6  A    between atoms: C_5  and  C_12 
REMARK    7  A    between atoms: C_5  and  C_13 
REMARK    8  A    between atoms: C_6  and  C_15 
REMARK    9  A    between atoms: C_6  and  C_16 
REMARK   10  A    between atoms: C_7  and  C_23 
REMARK   11  A    between atoms: C_9  and  C_17 
REMARK   12  A    between atoms: C_9  and  C_18 
REMARK   13  A    between atoms: C_14  and  C_19 
REMARK   14  A    between atoms: C_14  and  C_20 
REMARK   15  A    between atoms: C_21  and  C_22 
ROOT
HETATM    1  O   UNL     1      28.350  11.949 -14.838  1.00  0.00    -0.776 OA
HETATM    2  H   UNL     1      28.177  12.511 -14.070  1.00  0.00     0.167 HD
ENDROOT
BRANCH   1   3
HETATM    3  C   UNL     1      29.158  10.871 -14.754  1.00  0.00     0.139 C 
HETATM    4  O   UNL     1      28.698   9.784 -14.435  1.00  0.00    -0.650 OA
BRANCH   3   5
HETATM    5  C   UNL     1      30.623  11.011 -15.058  1.00  0.00     0.113 C 
BRANCH   5   6
HETATM    6  C   UNL     1      31.132   9.812 -15.866  1.00  0.00     0.037 C 
BRANCH   6   7
HETATM    7  C   UNL     1      32.063  10.267 -16.964  1.00  0.00    -0.030 C 
HETATM    8  C   UNL     1      33.122   9.592 -17.461  1.00  0.00    -0.027 C 
BRANCH   8   9
HETATM    9  C   UNL     1      33.626   8.228 -17.041  1.00  0.00     0.053 C 
BRANCH   9  10
HETATM   10  C   UNL     1      33.568   7.257 -18.193  1.00  0.00    -0.027 C 
HETATM   11  C   UNL     1      32.475   6.584 -18.598  1.00  0.00    -0.027 C 
BRANCH  11  12
HETATM   12  C   UNL     1      31.095   6.723 -18.011  1.00  0.00     0.053 C 
BRANCH  12  13
HETATM   13  C   UNL     1      30.657   5.437 -17.356  1.00  0.00    -0.027 C 
HETATM   14  C   UNL     1      30.563   5.200 -16.034  1.00  0.00    -0.027 C 
BRANCH  14  15
HETATM   15  C   UNL     1      30.925   6.162 -14.933  1.00  0.00     0.053 C 
BRANCH  15  16
HETATM   16  C   UNL     1      31.999   5.529 -14.077  1.00  0.00    -0.027 C 
HETATM   17  C   UNL     1      31.908   5.132 -12.792  1.00  0.00    -0.027 C 
BRANCH  17  18
HETATM   18  C   UNL     1      30.696   5.206 -11.901  1.00  0.00     0.053 C 
BRANCH  18  19
HETATM   19  C   UNL     1      30.669   6.514 -11.145  1.00  0.00    -0.027 C 
HETATM   20  C   UNL     1      31.039   6.731  -9.866  1.00  0.00    -0.027 C 
BRANCH  20  21
HETATM   21  C   UNL     1      31.622   5.725  -8.904  1.00  0.00     0.053 C 
BRANCH  21  22
HETATM   22  C   UNL     1      30.552   5.172  -7.991  1.00  0.00    -0.027 C 
HETATM   23  C   UNL     1      30.368   5.454  -6.687  1.00  0.00    -0.031 C 
BRANCH  23  24
HETATM   24  C   UNL     1      31.207   6.377  -5.841  1.00  0.00     0.022 C 
HETATM   25  C   UNL     1      30.656   7.796  -5.805  1.00  0.00     0.009 C 
ENDBRANCH  23  24
ENDBRANCH  21  22
ENDBRANCH  20  21
ENDBRANCH  18  19
ENDBRANCH  17  18
ENDBRANCH  15  16
ENDBRANCH  14  15
ENDBRANCH  12  13
ENDBRANCH  11  12
ENDBRANCH   9  10
ENDBRANCH   8   9
ENDBRANCH   6   7
ENDBRANCH   5   6
ENDBRANCH   3   5
ENDBRANCH   1   3
TORSDOF 15
ENDMDL
MODEL 18
REMARK VINA RESULT:      -4.4      3.060      5.606
REMARK  15 active torsions:
REMARK  status: ('A' for Active; 'I' for Inactive)
REMARK    1  A    between atoms: O_1  and  C_23 
REMARK    2  A    between atoms: C_3  and  C_7 
REMARK    3  A    between atoms: C_3  and  C_8 
REMARK    4  A    between atoms: C_4  and  C_10 
REMARK    5  A    between atoms: C_4  and  C_11 
REMARK    6  A    between atoms: C_5  and  C_12 
REMARK    7  A    between atoms: C_5  and  C_13 
REMARK    8  A    between atoms: C_6  and  C_15 
REMARK    9  A    between atoms: C_6  and  C_16 
REMARK   10  A    between atoms: C_7  and  C_23 
REMARK   11  A    between atoms: C_9  and  C_17 
REMARK   12  A    between atoms: C_9  and  C_18 
REMARK   13  A    between atoms: C_14  and  C_19 
REMARK   14  A    between atoms: C_14  and  C_20 
REMARK   15  A    between atoms: C_21  and  C_22 
ROOT
HETATM    1  O   UNL     1      28.884  11.865  -8.819  1.00  0.00    -0.776 OA
HETATM    2  H   UNL     1      28.799  12.714  -8.363  1.00  0.00     0.167 HD
ENDROOT
BRANCH   1   3
HETATM    3  C   UNL     1      29.841  11.658  -9.749  1.00  0.00     0.139 C 
HETATM    4  O   UNL     1      29.857  12.330 -10.770  1.00  0.00    -0.650 OA
BRANCH   3   5
HETATM    5  C   UNL     1      30.886  10.603  -9.522  1.00  0.00     0.113 C 
BRANCH   5   6
HETATM    6  C   UNL     1      30.769   9.484 -10.564  1.00  0.00     0.037 C 
BRANCH   6   7
HETATM    7  C   UNL     1      31.894   9.571 -11.567  1.00  0.00    -0.030 C 
HETATM    8  C   UNL     1      33.179   9.201 -11.380  1.00  0.00    -0.027 C 
BRANCH   8   9
HETATM    9  C   UNL     1      33.796   8.615 -10.128  1.00  0.00     0.053 C 
BRANCH   9  10
HETATM   10  C   UNL     1      34.041   7.136 -10.292  1.00  0.00    -0.027 C 
HETATM   11  C   UNL     1      33.164   6.158 -10.005  1.00  0.00    -0.027 C 
BRANCH  11  12
HETATM   12  C   UNL     1      31.752   6.365  -9.522  1.00  0.00     0.053 C 
BRANCH  12  13
HETATM   13  C   UNL     1      30.827   5.323 -10.099  1.00  0.00    -0.027 C 
HETATM   14  C   UNL     1      30.499   5.170 -11.396  1.00  0.00    -0.027 C 
BRANCH  14  15
HETATM   15  C   UNL     1      30.952   6.045 -12.534  1.00  0.00     0.053 C 
BRANCH  15  16
HETATM   16  C   UNL     1      32.043   5.322 -13.292  1.00  0.00    -0.027 C 
HETATM   17  C   UNL     1      33.004   5.856 -14.072  1.00  0.00    -0.027 C 
BRANCH  17  18
HETATM   18  C   UNL     1      33.234   7.316 -14.361  1.00  0.00     0.053 C 
BRANCH  18  19
HETATM   19  C   UNL     1      33.723   7.509 -15.777  1.00  0.00    -0.027 C 
HETATM   20  C   UNL     1      32.983   7.783 -16.872  1.00  0.00    -0.027 C 
BRANCH  20  21
HETATM   21  C   UNL     1      31.494   8.016 -16.928  1.00  0.00     0.053 C 
BRANCH  21  22
HETATM   22  C   UNL     1      30.738   6.744 -16.619  1.00  0.00    -0.027 C 
HETATM   23  C   UNL     1      30.829   5.565 -17.265  1.00  0.00    -0.031 C 
BRANCH  23  24
HETATM   24  C   UNL     1      31.697   5.260 -18.457  1.00  0.00     0.022 C 
HETATM   25  C   UNL     1      30.960   5.446 -19.778  1.00  0.00     0.009 C 
ENDBRANCH  23  24
ENDBRANCH  21  22
ENDBRANCH  20  21
ENDBRANCH  18  19
ENDBRANCH  17  18
ENDBRANCH  15  16
ENDBRANCH  14  15
ENDBRANCH  12  13
ENDBRANCH  11  12
ENDBRANCH   9  10
ENDBRANCH   8   9
ENDBRANCH   6   7
ENDBRANCH   5   6
ENDBRANCH   3   5
ENDBRANCH   1   3
TORSDOF 15
ENDMDL
MODEL 19
REMARK VINA RESULT:      -4.3      3.126      6.706
REMARK  15 active torsions:
REMARK  status: ('A' for Active; 'I' for Inactive)
REMARK    1  A    between atoms: O_1  and  C_23 
REMARK    2  A    between atoms: C_3  and  C_7 
REMARK    3  A    between atoms: C_3  and  C_8 
REMARK    4  A    between atoms: C_4  and  C_10 
REMARK    5  A    between atoms: C_4  and  C_11 
REMARK    6  A    between atoms: C_5  and  C_12 
REMARK    7  A    between atoms: C_5  and  C_13 
REMARK    8  A    between atoms: C_6  and  C_15 
REMARK    9  A    between atoms: C_6  and  C_16 
REMARK   10  A    between atoms: C_7  and  C_23 
REMARK   11  A    between atoms: C_9  and  C_17 
REMARK   12  A    between atoms: C_9  and  C_18 
REMARK   13  A    between atoms: C_14  and  C_19 
REMARK   14  A    between atoms: C_14  and  C_20 
REMARK   15  A    between atoms: C_21  and  C_22 
ROOT
HETATM    1  O   UNL     1      30.449   9.374 -18.332  1.00  0.00    -0.776 OA
HETATM    2  H   UNL     1      29.492   9.488 -18.410  1.00  0.00     0.167 HD
ENDROOT
BRANCH   1   3
HETATM    3  C   UNL     1      30.986   8.527 -17.428  1.00  0.00     0.139 C 
HETATM    4  O   UNL     1      30.290   8.060 -16.538  1.00  0.00    -0.650 OA
BRANCH   3   5
HETATM    5  C   UNL     1      32.439   8.159 -17.523  1.00  0.00     0.113 C 
BRANCH   5   6
HETATM    6  C   UNL     1      33.212   8.661 -16.297  1.00  0.00     0.037 C 
BRANCH   6   7
HETATM    7  C   UNL     1      33.850   7.507 -15.561  1.00  0.00    -0.030 C 
HETATM    8  C   UNL     1      33.379   6.889 -14.457  1.00  0.00    -0.027 C 
BRANCH   8   9
HETATM    9  C   UNL     1      32.108   7.201 -13.697  1.00  0.00     0.053 C 
BRANCH   9  10
HETATM   10  C   UNL     1      31.243   5.973 -13.570  1.00  0.00    -0.027 C 
HETATM   11  C   UNL     1      30.628   5.558 -12.447  1.00  0.00    -0.027 C 
BRANCH  11  12
HETATM   12  C   UNL     1      30.645   6.278 -11.124  1.00  0.00     0.053 C 
BRANCH  12  13
HETATM   13  C   UNL     1      30.931   5.321  -9.994  1.00  0.00    -0.027 C 
HETATM   14  C   UNL     1      31.939   5.405  -9.105  1.00  0.00    -0.027 C 
BRANCH  14  15
HETATM   15  C   UNL     1      33.021   6.452  -9.089  1.00  0.00     0.053 C 
BRANCH  15  16
HETATM   16  C   UNL     1      33.909   6.244 -10.295  1.00  0.00    -0.027 C 
HETATM   17  C   UNL     1      34.600   7.174 -10.986  1.00  0.00    -0.027 C 
BRANCH  17  18
HETATM   18  C   UNL     1      34.667   8.652 -10.704  1.00  0.00     0.053 C 
BRANCH  18  19
HETATM   19  C   UNL     1      34.583   9.443 -11.988  1.00  0.00    -0.027 C 
HETATM   20  C   UNL     1      33.640  10.341 -12.339  1.00  0.00    -0.027 C 
BRANCH  20  21
HETATM   21  C   UNL     1      32.472  10.807 -11.504  1.00  0.00     0.053 C 
BRANCH  21  22
HETATM   22  C   UNL     1      31.233  10.000 -11.813  1.00  0.00    -0.027 C 
HETATM   23  C   UNL     1      30.273  10.292 -12.712  1.00  0.00    -0.031 C 
BRANCH  23  24
HETATM   24  C   UNL     1      30.215  11.508 -13.600  1.00  0.00     0.022 C 
HETATM   25  C   UNL     1      31.012  11.330 -14.886  1.00  0.00     0.009 C 
ENDBRANCH  23  24
ENDBRANCH  21  22
ENDBRANCH  20  21
ENDBRANCH  18  19
ENDBRANCH  17  18
ENDBRANCH  15  16
ENDBRANCH  14  15
ENDBRANCH  12  13
ENDBRANCH  11  12
ENDBRANCH   9  10
ENDBRANCH   8   9
ENDBRANCH   6   7
ENDBRANCH   5   6
ENDBRANCH   3   5
ENDBRANCH   1   3
TORSDOF 15
ENDMDL
MODEL 20
REMARK VINA RESULT:      -4.3      2.751      5.569
REMARK  15 active torsions:
REMARK  status: ('A' for Active; 'I' for Inactive)
REMARK    1  A    between atoms: O_1  and  C_23 
REMARK    2  A    between atoms: C_3  and  C_7 
REMARK    3  A    between atoms: C_3  and  C_8 
REMARK    4  A    between atoms: C_4  and  C_10 
REMARK    5  A    between atoms: C_4  and  C_11 
REMARK    6  A    between atoms: C_5  and  C_12 
REMARK    7  A    between atoms: C_5  and  C_13 
REMARK    8  A    between atoms: C_6  and  C_15 
REMARK    9  A    between atoms: C_6  and  C_16 
REMARK   10  A    between atoms: C_7  and  C_23 
REMARK   11  A    between atoms: C_9  and  C_17 
REMARK   12  A    between atoms: C_9  and  C_18 
REMARK   13  A    between atoms: C_14  and  C_19 
REMARK   14  A    between atoms: C_14  and  C_20 
REMARK   15  A    between atoms: C_21  and  C_22 
ROOT
HETATM    1  O   UNL     1      29.253  12.328 -20.798  1.00  0.00    -0.776 OA
HETATM    2  H   UNL     1      29.150  12.533 -21.737  1.00  0.00     0.167 HD
ENDROOT
BRANCH   1   3
HETATM    3  C   UNL     1      30.076  11.343 -20.379  1.00  0.00     0.139 C 
HETATM    4  O   UNL     1      31.287  11.466 -20.495  1.00  0.00    -0.650 OA
BRANCH   3   5
HETATM    5  C   UNL     1      29.499  10.098 -19.768  1.00  0.00     0.113 C 
BRANCH   5   6
HETATM    6  C   UNL     1      30.041   9.883 -18.350  1.00  0.00     0.037 C 
BRANCH   6   7
HETATM    7  C   UNL     1      29.617  11.011 -17.441  1.00  0.00    -0.030 C 
HETATM    8  C   UNL     1      29.586  10.999 -16.091  1.00  0.00    -0.027 C 
BRANCH   8   9
HETATM    9  C   UNL     1      29.967   9.859 -15.171  1.00  0.00     0.053 C 
BRANCH   9  10
HETATM   10  C   UNL     1      31.183  10.213 -14.354  1.00  0.00    -0.027 C 
HETATM   11  C   UNL     1      32.460   9.973 -14.702  1.00  0.00    -0.027 C 
BRANCH  11  12
HETATM   12  C   UNL     1      32.911   9.360 -16.002  1.00  0.00     0.053 C 
BRANCH  12  13
HETATM   13  C   UNL     1      34.353   8.924 -15.920  1.00  0.00    -0.027 C 
HETATM   14  C   UNL     1      34.805   7.659 -15.823  1.00  0.00    -0.027 C 
BRANCH  14  15
HETATM   15  C   UNL     1      33.957   6.419 -15.727  1.00  0.00     0.053 C 
BRANCH  15  16
HETATM   16  C   UNL     1      33.544   6.230 -14.284  1.00  0.00    -0.027 C 
HETATM   17  C   UNL     1      32.302   6.287 -13.763  1.00  0.00    -0.027 C 
BRANCH  17  18
HETATM   18  C   UNL     1      31.015   6.536 -14.505  1.00  0.00     0.053 C 
BRANCH  18  19
HETATM   19  C   UNL     1      30.671   5.358 -15.386  1.00  0.00    -0.027 C 
HETATM   20  C   UNL     1      30.564   5.341 -16.730  1.00  0.00    -0.027 C 
BRANCH  20  21
HETATM   21  C   UNL     1      30.818   6.488 -17.677  1.00  0.00     0.053 C 
BRANCH  21  22
HETATM   22  C   UNL     1      31.181   5.979 -19.053  1.00  0.00    -0.027 C 
HETATM   23  C   UNL     1      32.320   6.213 -19.734  1.00  0.00    -0.031 C 
BRANCH  23  24
HETATM   24  C   UNL     1      33.482   7.057 -19.276  1.00  0.00     0.022 C 
HETATM   25  C   UNL     1      33.288   8.535 -19.590  1.00  0.00     0.009 C 
ENDBRANCH  23  24
ENDBRANCH  21  22
ENDBRANCH  20  21
ENDBRANCH  18  19
ENDBRANCH  17  18
ENDBRANCH  15  16
ENDBRANCH  14  15
ENDBRANCH  12  13
ENDBRANCH  11  12
ENDBRANCH   9  10
ENDBRANCH   8   9
ENDBRANCH   6   7
ENDBRANCH   5   6
ENDBRANCH   3   5
ENDBRANCH   1   3
TORSDOF 15
ENDMDL
