MODEL 1
REMARK VINA RESULT:      -7.0      0.000      0.000
REMARK  16 active torsions:
REMARK  status: ('A' for Active; 'I' for Inactive)
REMARK    1  A    between atoms: O_1  and  C_20 
REMARK    2  A    between atoms: C_3  and  C_4 
REMARK    3  A    between atoms: C_3  and  C_5 
REMARK    4  A    between atoms: C_4  and  C_8 
REMARK    5  A    between atoms: C_5  and  C_11 
REMARK    6  A    between atoms: C_6  and  C_7 
REMARK    7  A    between atoms: C_6  and  C_9 
REMARK    8  A    between atoms: C_7  and  C_10 
REMARK    9  A    between atoms: C_8  and  C_12 
REMARK   10  A    between atoms: C_9  and  C_13 
REMARK   11  A    between atoms: C_10  and  C_14 
REMARK   12  A    between atoms: C_11  and  C_15 
REMARK   13  A    between atoms: C_12  and  C_16 
REMARK   14  A    between atoms: C_13  and  C_17 
REMARK   15  A    between atoms: C_14  and  C_18 
REMARK   16  A    between atoms: C_18  and  C_20 
ROOT
HETATM    1  O   UNL     1       5.342   9.336  -5.365  1.00  0.00    -0.776 OA
HETATM    2  H   UNL     1       6.205   9.405  -5.798  1.00  0.00     0.167 HD
ENDROOT
BRANCH   1   3
HETATM    3  C   UNL     1       4.195   9.339  -6.075  1.00  0.00     0.139 C 
HETATM    4  O   UNL     1       3.246   8.663  -5.699  1.00  0.00    -0.650 OA
BRANCH   3   5
HETATM    5  C   UNL     1       4.108  10.180  -7.321  1.00  0.00     0.110 C 
BRANCH   5   6
HETATM    6  C   UNL     1       5.349  10.060  -8.216  1.00  0.00     0.010 C 
BRANCH   6   7
HETATM    7  C   UNL     1       4.987   9.458  -9.580  1.00  0.00     0.001 C 
BRANCH   7   8
HETATM    8  C   UNL     1       3.543   9.799  -9.962  1.00  0.00     0.000 C 
BRANCH   8   9
HETATM    9  C   UNL     1       3.318   9.635 -11.470  1.00  0.00     0.000 C 
BRANCH   9  10
HETATM   10  C   UNL     1       4.635   9.313 -12.184  1.00  0.00     0.004 C 
BRANCH  10  11
HETATM   11  C   UNL     1       5.001  10.401 -13.197  1.00  0.00     0.027 C 
BRANCH  11  12
HETATM   12  C   UNL     1       5.912   9.818 -14.251  1.00  0.00    -0.031 C 
HETATM   13  C   UNL     1       5.538   9.238 -15.409  1.00  0.00    -0.031 C 
BRANCH  13  14
HETATM   14  C   UNL     1       4.124   9.031 -15.911  1.00  0.00     0.027 C 
BRANCH  14  15
HETATM   15  C   UNL     1       3.890   9.778 -17.236  1.00  0.00     0.004 C 
BRANCH  15  16
HETATM   16  C   UNL     1       5.178  10.106 -18.018  1.00  0.00     0.000 C 
BRANCH  16  17
HETATM   17  C   UNL     1       5.141   9.622 -19.477  1.00  0.00     0.000 C 
BRANCH  17  18
HETATM   18  C   UNL     1       3.700   9.381 -19.944  1.00  0.00     0.000 C 
BRANCH  18  19
HETATM   19  C   UNL     1       3.661   8.984 -21.424  1.00  0.00    -0.000 C 
BRANCH  19  20
HETATM   20  C   UNL     1       3.873  10.204 -22.329  1.00  0.00    -0.005 C 
HETATM   21  C   UNL     1       4.844   9.886 -23.461  1.00  0.00     0.005 C 
ENDBRANCH  19  20
ENDBRANCH  18  19
ENDBRANCH  17  18
ENDBRANCH  16  17
ENDBRANCH  15  16
ENDBRANCH  14  15
ENDBRANCH  13  14
ENDBRANCH  11  12
ENDBRANCH  10  11
ENDBRANCH   9  10
ENDBRANCH   8   9
ENDBRANCH   7   8
ENDBRANCH   6   7
ENDBRANCH   5   6
ENDBRANCH   3   5
ENDBRANCH   1   3
TORSDOF 16
ENDMDL
MODEL 2
REMARK VINA RESULT:      -5.9      7.312     12.911
REMARK  16 active torsions:
REMARK  status: ('A' for Active; 'I' for Inactive)
REMARK    1  A    between atoms: O_1  and  C_20 
REMARK    2  A    between atoms: C_3  and  C_4 
REMARK    3  A    between atoms: C_3  and  C_5 
REMARK    4  A    between atoms: C_4  and  C_8 
REMARK    5  A    between atoms: C_5  and  C_11 
REMARK    6  A    between atoms: C_6  and  C_7 
REMARK    7  A    between atoms: C_6  and  C_9 
REMARK    8  A    between atoms: C_7  and  C_10 
REMARK    9  A    between atoms: C_8  and  C_12 
REMARK   10  A    between atoms: C_9  and  C_13 
REMARK   11  A    between atoms: C_10  and  C_14 
REMARK   12  A    between atoms: C_11  and  C_15 
REMARK   13  A    between atoms: C_12  and  C_16 
REMARK   14  A    between atoms: C_13  and  C_17 
REMARK   15  A    between atoms: C_14  and  C_18 
REMARK   16  A    between atoms: C_18  and  C_20 
ROOT
HETATM    1  O   UNL     1       6.358   8.372 -28.200  1.00  0.00    -0.776 OA
HETATM    2  H   UNL     1       7.041   7.863 -27.740  1.00  0.00     0.167 HD
ENDROOT
BRANCH   1   3
HETATM    3  C   UNL     1       5.650   9.333 -27.570  1.00  0.00     0.139 C 
HETATM    4  O   UNL     1       5.266  10.312 -28.194  1.00  0.00    -0.650 OA
BRANCH   3   5
HETATM    5  C   UNL     1       5.348   9.175 -26.103  1.00  0.00     0.110 C 
BRANCH   5   6
HETATM    6  C   UNL     1       3.972   9.729 -25.707  1.00  0.00     0.010 C 
BRANCH   6   7
HETATM    7  C   UNL     1       3.747   9.612 -24.195  1.00  0.00     0.001 C 
BRANCH   7   8
HETATM    8  C   UNL     1       5.056   9.827 -23.429  1.00  0.00     0.000 C 
BRANCH   8   9
HETATM    9  C   UNL     1       4.794  10.013 -21.929  1.00  0.00     0.000 C 
BRANCH   9  10
HETATM   10  C   UNL     1       3.623   9.138 -21.470  1.00  0.00     0.004 C 
BRANCH  10  11
HETATM   11  C   UNL     1       3.746   8.773 -19.989  1.00  0.00     0.027 C 
BRANCH  11  12
HETATM   12  C   UNL     1       4.889   9.545 -19.374  1.00  0.00    -0.031 C 
HETATM   13  C   UNL     1       4.896  10.153 -18.171  1.00  0.00    -0.031 C 
BRANCH  13  14
HETATM   14  C   UNL     1       3.763  10.206 -17.168  1.00  0.00     0.027 C 
BRANCH  14  15
HETATM   15  C   UNL     1       3.791   8.986 -16.231  1.00  0.00     0.004 C 
BRANCH  15  16
HETATM   16  C   UNL     1       4.992   8.955 -15.263  1.00  0.00     0.000 C 
BRANCH  16  17
HETATM   17  C   UNL     1       5.127  10.236 -14.423  1.00  0.00     0.000 C 
BRANCH  17  18
HETATM   18  C   UNL     1       5.170   9.913 -12.924  1.00  0.00     0.000 C 
BRANCH  18  19
HETATM   19  C   UNL     1       3.765   9.621 -12.384  1.00  0.00    -0.000 C 
BRANCH  19  20
HETATM   20  C   UNL     1       3.822   8.666 -11.186  1.00  0.00    -0.005 C 
HETATM   21  C   UNL     1       3.821   9.434  -9.868  1.00  0.00     0.005 C 
ENDBRANCH  19  20
ENDBRANCH  18  19
ENDBRANCH  17  18
ENDBRANCH  16  17
ENDBRANCH  15  16
ENDBRANCH  14  15
ENDBRANCH  13  14
ENDBRANCH  11  12
ENDBRANCH  10  11
ENDBRANCH   9  10
ENDBRANCH   8   9
ENDBRANCH   7   8
ENDBRANCH   6   7
ENDBRANCH   5   6
ENDBRANCH   3   5
ENDBRANCH   1   3
TORSDOF 16
ENDMDL
MODEL 3
REMARK VINA RESULT:      -5.9      1.397      3.121
REMARK  16 active torsions:
REMARK  status: ('A' for Active; 'I' for Inactive)
REMARK    1  A    between atoms: O_1  and  C_20 
REMARK    2  A    between atoms: C_3  and  C_4 
REMARK    3  A    between atoms: C_3  and  C_5 
REMARK    4  A    between atoms: C_4  and  C_8 
REMARK    5  A    between atoms: C_5  and  C_11 
REMARK    6  A    between atoms: C_6  and  C_7 
REMARK    7  A    between atoms: C_6  and  C_9 
REMARK    8  A    between atoms: C_7  and  C_10 
REMARK    9  A    between atoms: C_8  and  C_12 
REMARK   10  A    between atoms: C_9  and  C_13 
REMARK   11  A    between atoms: C_10  and  C_14 
REMARK   12  A    between atoms: C_11  and  C_15 
REMARK   13  A    between atoms: C_12  and  C_16 
REMARK   14  A    between atoms: C_13  and  C_17 
REMARK   15  A    between atoms: C_14  and  C_18 
REMARK   16  A    between atoms: C_18  and  C_20 
ROOT
HETATM    1  O   UNL     1       3.802  10.973  -3.256  1.00  0.00    -0.776 OA
HETATM    2  H   UNL     1       3.417  11.703  -3.761  1.00  0.00     0.167 HD
ENDROOT
BRANCH   1   3
HETATM    3  C   UNL     1       3.637   9.689  -3.637  1.00  0.00     0.139 C 
HETATM    4  O   UNL     1       3.715   8.794  -2.806  1.00  0.00    -0.650 OA
BRANCH   3   5
HETATM    5  C   UNL     1       3.357   9.386  -5.085  1.00  0.00     0.110 C 
BRANCH   5   6
HETATM    6  C   UNL     1       4.460   8.550  -5.750  1.00  0.00     0.010 C 
BRANCH   6   7
HETATM    7  C   UNL     1       5.656   9.429  -6.139  1.00  0.00     0.001 C 
BRANCH   7   8
HETATM    8  C   UNL     1       5.530   9.915  -7.587  1.00  0.00     0.000 C 
BRANCH   8   9
HETATM    9  C   UNL     1       4.174  10.591  -7.825  1.00  0.00     0.000 C 
BRANCH   9  10
HETATM   10  C   UNL     1       3.595  10.182  -9.184  1.00  0.00     0.004 C 
BRANCH  10  11
HETATM   11  C   UNL     1       4.555   9.265  -9.947  1.00  0.00     0.027 C 
BRANCH  11  12
HETATM   12  C   UNL     1       3.797   8.538 -11.032  1.00  0.00    -0.031 C 
HETATM   13  C   UNL     1       3.569   8.974 -12.287  1.00  0.00    -0.031 C 
BRANCH  13  14
HETATM   14  C   UNL     1       4.010  10.291 -12.890  1.00  0.00     0.027 C 
BRANCH  14  15
HETATM   15  C   UNL     1       4.940  10.067 -14.095  1.00  0.00     0.004 C 
BRANCH  15  16
HETATM   16  C   UNL     1       4.349   9.163 -15.196  1.00  0.00     0.000 C 
BRANCH  16  17
HETATM   17  C   UNL     1       4.994   9.385 -16.574  1.00  0.00     0.000 C 
BRANCH  17  18
HETATM   18  C   UNL     1       3.964   9.894 -17.591  1.00  0.00     0.000 C 
BRANCH  18  19
HETATM   19  C   UNL     1       4.537   9.868 -19.013  1.00  0.00    -0.000 C 
BRANCH  19  20
HETATM   20  C   UNL     1       3.595   9.133 -19.975  1.00  0.00    -0.005 C 
HETATM   21  C   UNL     1       3.842   9.557 -21.419  1.00  0.00     0.005 C 
ENDBRANCH  19  20
ENDBRANCH  18  19
ENDBRANCH  17  18
ENDBRANCH  16  17
ENDBRANCH  15  16
ENDBRANCH  14  15
ENDBRANCH  13  14
ENDBRANCH  11  12
ENDBRANCH  10  11
ENDBRANCH   9  10
ENDBRANCH   8   9
ENDBRANCH   7   8
ENDBRANCH   6   7
ENDBRANCH   5   6
ENDBRANCH   3   5
ENDBRANCH   1   3
TORSDOF 16
ENDMDL
MODEL 4
REMARK VINA RESULT:      -5.3      7.519     13.344
REMARK  16 active torsions:
REMARK  status: ('A' for Active; 'I' for Inactive)
REMARK    1  A    between atoms: O_1  and  C_20 
REMARK    2  A    between atoms: C_3  and  C_4 
REMARK    3  A    between atoms: C_3  and  C_5 
REMARK    4  A    between atoms: C_4  and  C_8 
REMARK    5  A    between atoms: C_5  and  C_11 
REMARK    6  A    between atoms: C_6  and  C_7 
REMARK    7  A    between atoms: C_6  and  C_9 
REMARK    8  A    between atoms: C_7  and  C_10 
REMARK    9  A    between atoms: C_8  and  C_12 
REMARK   10  A    between atoms: C_9  and  C_13 
REMARK   11  A    between atoms: C_10  and  C_14 
REMARK   12  A    between atoms: C_11  and  C_15 
REMARK   13  A    between atoms: C_12  and  C_16 
REMARK   14  A    between atoms: C_13  and  C_17 
REMARK   15  A    between atoms: C_14  and  C_18 
REMARK   16  A    between atoms: C_18  and  C_20 
ROOT
HETATM    1  O   UNL     1       7.201  10.352 -27.838  1.00  0.00    -0.776 OA
HETATM    2  H   UNL     1       7.793  10.869 -28.403  1.00  0.00     0.167 HD
ENDROOT
BRANCH   1   3
HETATM    3  C   UNL     1       6.821   9.102 -28.173  1.00  0.00     0.139 C 
HETATM    4  O   UNL     1       7.637   8.327 -28.653  1.00  0.00    -0.650 OA
BRANCH   3   5
HETATM    5  C   UNL     1       5.391   8.687 -27.945  1.00  0.00     0.110 C 
BRANCH   5   6
HETATM    6  C   UNL     1       4.702   9.484 -26.828  1.00  0.00     0.010 C 
BRANCH   6   7
HETATM    7  C   UNL     1       5.102   8.953 -25.446  1.00  0.00     0.001 C 
BRANCH   7   8
HETATM    8  C   UNL     1       6.031   9.938 -24.729  1.00  0.00     0.000 C 
BRANCH   8   9
HETATM    9  C   UNL     1       5.794   9.916 -23.214  1.00  0.00     0.000 C 
BRANCH   9  10
HETATM   10  C   UNL     1       4.317  10.167 -22.892  1.00  0.00     0.004 C 
BRANCH  10  11
HETATM   11  C   UNL     1       3.749   9.070 -21.986  1.00  0.00     0.027 C 
BRANCH  11  12
HETATM   12  C   UNL     1       3.130   9.701 -20.762  1.00  0.00    -0.031 C 
HETATM   13  C   UNL     1       3.746   9.968 -19.593  1.00  0.00    -0.031 C 
BRANCH  13  14
HETATM   14  C   UNL     1       5.192   9.689 -19.239  1.00  0.00     0.027 C 
BRANCH  14  15
HETATM   15  C   UNL     1       5.463   9.967 -17.750  1.00  0.00     0.004 C 
BRANCH  15  16
HETATM   16  C   UNL     1       4.196  10.214 -16.907  1.00  0.00     0.000 C 
BRANCH  16  17
HETATM   17  C   UNL     1       3.754   8.980 -16.103  1.00  0.00     0.000 C 
BRANCH  17  18
HETATM   18  C   UNL     1       3.753   9.274 -14.597  1.00  0.00     0.000 C 
BRANCH  18  19
HETATM   19  C   UNL     1       5.150   9.682 -14.115  1.00  0.00    -0.000 C 
BRANCH  19  20
HETATM   20  C   UNL     1       5.140  10.029 -12.622  1.00  0.00    -0.005 C 
HETATM   21  C   UNL     1       3.890   9.485 -11.939  1.00  0.00     0.005 C 
ENDBRANCH  19  20
ENDBRANCH  18  19
ENDBRANCH  17  18
ENDBRANCH  16  17
ENDBRANCH  15  16
ENDBRANCH  14  15
ENDBRANCH  13  14
ENDBRANCH  11  12
ENDBRANCH  10  11
ENDBRANCH   9  10
ENDBRANCH   8   9
ENDBRANCH   7   8
ENDBRANCH   6   7
ENDBRANCH   5   6
ENDBRANCH   3   5
ENDBRANCH   1   3
TORSDOF 16
ENDMDL
MODEL 5
REMARK VINA RESULT:      -5.2     46.249     48.610
REMARK  16 active torsions:
REMARK  status: ('A' for Active; 'I' for Inactive)
REMARK    1  A    between atoms: O_1  and  C_20 
REMARK    2  A    between atoms: C_3  and  C_4 
REMARK    3  A    between atoms: C_3  and  C_5 
REMARK    4  A    between atoms: C_4  and  C_8 
REMARK    5  A    between atoms: C_5  and  C_11 
REMARK    6  A    between atoms: C_6  and  C_7 
REMARK    7  A    between atoms: C_6  and  C_9 
REMARK    8  A    between atoms: C_7  and  C_10 
REMARK    9  A    between atoms: C_8  and  C_12 
REMARK   10  A    between atoms: C_9  and  C_13 
REMARK   11  A    between atoms: C_10  and  C_14 
REMARK   12  A    between atoms: C_11  and  C_15 
REMARK   13  A    between atoms: C_12  and  C_16 
REMARK   14  A    between atoms: C_13  and  C_17 
REMARK   15  A    between atoms: C_14  and  C_18 
REMARK   16  A    between atoms: C_18  and  C_20 
ROOT
HETATM    1  O   UNL     1      47.226  -5.022 -14.097  1.00  0.00    -0.776 OA
HETATM    2  H   UNL     1      48.005  -5.371 -14.554  1.00  0.00     0.167 HD
ENDROOT
BRANCH   1   3
HETATM    3  C   UNL     1      46.725  -5.624 -12.999  1.00  0.00     0.139 C 
HETATM    4  O   UNL     1      45.699  -6.286 -13.084  1.00  0.00    -0.650 OA
BRANCH   3   5
HETATM    5  C   UNL     1      47.444  -5.467 -11.685  1.00  0.00     0.110 C 
BRANCH   5   6
HETATM    6  C   UNL     1      47.988  -6.791 -11.132  1.00  0.00     0.010 C 
BRANCH   6   7
HETATM    7  C   UNL     1      48.403  -6.645  -9.663  1.00  0.00     0.001 C 
BRANCH   7   8
HETATM    8  C   UNL     1      47.173  -6.562  -8.753  1.00  0.00     0.000 C 
BRANCH   8   9
HETATM    9  C   UNL     1      47.140  -5.233  -7.989  1.00  0.00     0.000 C 
BRANCH   9  10
HETATM   10  C   UNL     1      47.939  -5.336  -6.686  1.00  0.00     0.004 C 
BRANCH  10  11
HETATM   11  C   UNL     1      47.042  -5.732  -5.510  1.00  0.00     0.027 C 
BRANCH  11  12
HETATM   12  C   UNL     1      47.814  -6.625  -4.569  1.00  0.00    -0.031 C 
HETATM   13  C   UNL     1      47.826  -6.558  -3.222  1.00  0.00    -0.031 C 
BRANCH  13  14
HETATM   14  C   UNL     1      47.078  -5.572  -2.351  1.00  0.00     0.027 C 
BRANCH  14  15
HETATM   15  C   UNL     1      47.702  -5.486  -0.946  1.00  0.00     0.004 C 
BRANCH  15  16
HETATM   16  C   UNL     1      49.120  -4.881  -0.915  1.00  0.00     0.000 C 
BRANCH  16  17
HETATM   17  C   UNL     1      50.048  -5.563   0.103  1.00  0.00     0.000 C 
BRANCH  17  18
HETATM   18  C   UNL     1      51.481  -5.025  -0.008  1.00  0.00     0.000 C 
BRANCH  18  19
HETATM   19  C   UNL     1      51.514  -3.505   0.189  1.00  0.00    -0.000 C 
BRANCH  19  20
HETATM   20  C   UNL     1      52.927  -3.025   0.541  1.00  0.00    -0.005 C 
HETATM   21  C   UNL     1      53.929  -4.174   0.486  1.00  0.00     0.005 C 
ENDBRANCH  19  20
ENDBRANCH  18  19
ENDBRANCH  17  18
ENDBRANCH  16  17
ENDBRANCH  15  16
ENDBRANCH  14  15
ENDBRANCH  13  14
ENDBRANCH  11  12
ENDBRANCH  10  11
ENDBRANCH   9  10
ENDBRANCH   8   9
ENDBRANCH   7   8
ENDBRANCH   6   7
ENDBRANCH   5   6
ENDBRANCH   3   5
ENDBRANCH   1   3
TORSDOF 16
ENDMDL
MODEL 6
REMARK VINA RESULT:      -5.0     26.262     28.280
REMARK  16 active torsions:
REMARK  status: ('A' for Active; 'I' for Inactive)
REMARK    1  A    between atoms: O_1  and  C_20 
REMARK    2  A    between atoms: C_3  and  C_4 
REMARK    3  A    between atoms: C_3  and  C_5 
REMARK    4  A    between atoms: C_4  and  C_8 
REMARK    5  A    between atoms: C_5  and  C_11 
REMARK    6  A    between atoms: C_6  and  C_7 
REMARK    7  A    between atoms: C_6  and  C_9 
REMARK    8  A    between atoms: C_7  and  C_10 
REMARK    9  A    between atoms: C_8  and  C_12 
REMARK   10  A    between atoms: C_9  and  C_13 
REMARK   11  A    between atoms: C_10  and  C_14 
REMARK   12  A    between atoms: C_11  and  C_15 
REMARK   13  A    between atoms: C_12  and  C_16 
REMARK   14  A    between atoms: C_13  and  C_17 
REMARK   15  A    between atoms: C_14  and  C_18 
REMARK   16  A    between atoms: C_18  and  C_20 
ROOT
HETATM    1  O   UNL     1      28.381  11.674 -14.780  1.00  0.00    -0.776 OA
HETATM    2  H   UNL     1      27.931  11.331 -13.995  1.00  0.00     0.167 HD
ENDROOT
BRANCH   1   3
HETATM    3  C   UNL     1      29.249  10.917 -15.483  1.00  0.00     0.139 C 
HETATM    4  O   UNL     1      29.000  10.630 -16.646  1.00  0.00    -0.650 OA
BRANCH   3   5
HETATM    5  C   UNL     1      30.511  10.440 -14.814  1.00  0.00     0.110 C 
BRANCH   5   6
HETATM    6  C   UNL     1      30.248   9.512 -13.620  1.00  0.00     0.010 C 
BRANCH   6   7
HETATM    7  C   UNL     1      31.020   9.979 -12.380  1.00  0.00     0.001 C 
BRANCH   7   8
HETATM    8  C   UNL     1      31.774   8.811 -11.734  1.00  0.00     0.000 C 
BRANCH   8   9
HETATM    9  C   UNL     1      33.289   9.044 -11.773  1.00  0.00     0.000 C 
BRANCH   9  10
HETATM   10  C   UNL     1      33.971   8.031 -12.698  1.00  0.00     0.004 C 
BRANCH  10  11
HETATM   11  C   UNL     1      33.965   8.510 -14.152  1.00  0.00     0.027 C 
BRANCH  11  12
HETATM   12  C   UNL     1      34.103   7.321 -15.073  1.00  0.00    -0.031 C 
HETATM   13  C   UNL     1      33.104   6.551 -15.549  1.00  0.00    -0.031 C 
BRANCH  13  14
HETATM   14  C   UNL     1      31.624   6.697 -15.266  1.00  0.00     0.027 C 
BRANCH  14  15
HETATM   15  C   UNL     1      31.063   5.443 -14.572  1.00  0.00     0.004 C 
BRANCH  15  16
HETATM   16  C   UNL     1      31.535   5.256 -13.116  1.00  0.00     0.000 C 
BRANCH  16  17
HETATM   17  C   UNL     1      30.430   5.525 -12.081  1.00  0.00     0.000 C 
BRANCH  17  18
HETATM   18  C   UNL     1      30.947   5.311 -10.652  1.00  0.00     0.000 C 
BRANCH  18  19
HETATM   19  C   UNL     1      32.478   5.234 -10.627  1.00  0.00    -0.000 C 
BRANCH  19  20
HETATM   20  C   UNL     1      33.032   5.708  -9.279  1.00  0.00    -0.005 C 
HETATM   21  C   UNL     1      32.193   6.847  -8.708  1.00  0.00     0.005 C 
ENDBRANCH  19  20
ENDBRANCH  18  19
ENDBRANCH  17  18
ENDBRANCH  16  17
ENDBRANCH  15  16
ENDBRANCH  14  15
ENDBRANCH  13  14
ENDBRANCH  11  12
ENDBRANCH  10  11
ENDBRANCH   9  10
ENDBRANCH   8   9
ENDBRANCH   7   8
ENDBRANCH   6   7
ENDBRANCH   5   6
ENDBRANCH   3   5
ENDBRANCH   1   3
TORSDOF 16
ENDMDL
MODEL 7
REMARK VINA RESULT:      -5.0     27.132     29.459
REMARK  16 active torsions:
REMARK  status: ('A' for Active; 'I' for Inactive)
REMARK    1  A    between atoms: O_1  and  C_20 
REMARK    2  A    between atoms: C_3  and  C_4 
REMARK    3  A    between atoms: C_3  and  C_5 
REMARK    4  A    between atoms: C_4  and  C_8 
REMARK    5  A    between atoms: C_5  and  C_11 
REMARK    6  A    between atoms: C_6  and  C_7 
REMARK    7  A    between atoms: C_6  and  C_9 
REMARK    8  A    between atoms: C_7  and  C_10 
REMARK    9  A    between atoms: C_8  and  C_12 
REMARK   10  A    between atoms: C_9  and  C_13 
REMARK   11  A    between atoms: C_10  and  C_14 
REMARK   12  A    between atoms: C_11  and  C_15 
REMARK   13  A    between atoms: C_12  and  C_16 
REMARK   14  A    between atoms: C_13  and  C_17 
REMARK   15  A    between atoms: C_14  and  C_18 
REMARK   16  A    between atoms: C_18  and  C_20 
ROOT
HETATM    1  O   UNL     1      32.466   5.162 -23.183  1.00  0.00    -0.776 OA
HETATM    2  H   UNL     1      32.313   6.027 -23.591  1.00  0.00     0.167 HD
ENDROOT
BRANCH   1   3
HETATM    3  C   UNL     1      32.082   4.902 -21.916  1.00  0.00     0.139 C 
HETATM    4  O   UNL     1      32.784   4.201 -21.200  1.00  0.00    -0.650 OA
BRANCH   3   5
HETATM    5  C   UNL     1      30.789   5.486 -21.409  1.00  0.00     0.110 C 
BRANCH   5   6
HETATM    6  C   UNL     1      30.878   6.992 -21.126  1.00  0.00     0.010 C 
BRANCH   6   7
HETATM    7  C   UNL     1      31.037   7.261 -19.624  1.00  0.00     0.001 C 
BRANCH   7   8
HETATM    8  C   UNL     1      32.362   7.972 -19.333  1.00  0.00     0.000 C 
BRANCH   8   9
HETATM    9  C   UNL     1      33.146   7.250 -18.231  1.00  0.00     0.000 C 
BRANCH   9  10
HETATM   10  C   UNL     1      32.937   5.734 -18.321  1.00  0.00     0.004 C 
BRANCH  10  11
HETATM   11  C   UNL     1      32.615   5.133 -16.950  1.00  0.00     0.027 C 
BRANCH  11  12
HETATM   12  C   UNL     1      31.118   5.042 -16.781  1.00  0.00    -0.031 C 
HETATM   13  C   UNL     1      30.336   5.870 -16.060  1.00  0.00    -0.031 C 
BRANCH  13  14
HETATM   14  C   UNL     1      30.780   7.070 -15.250  1.00  0.00     0.027 C 
BRANCH  14  15
HETATM   15  C   UNL     1      31.785   6.663 -14.158  1.00  0.00     0.004 C 
BRANCH  15  16
HETATM   16  C   UNL     1      31.278   6.874 -12.717  1.00  0.00     0.000 C 
BRANCH  16  17
HETATM   17  C   UNL     1      30.491   5.672 -12.169  1.00  0.00     0.000 C 
BRANCH  17  18
HETATM   18  C   UNL     1      30.923   5.334 -10.736  1.00  0.00     0.000 C 
BRANCH  18  19
HETATM   19  C   UNL     1      32.136   6.172 -10.316  1.00  0.00    -0.000 C 
BRANCH  19  20
HETATM   20  C   UNL     1      32.828   5.565  -9.090  1.00  0.00    -0.005 C 
HETATM   21  C   UNL     1      31.812   5.183  -8.017  1.00  0.00     0.005 C 
ENDBRANCH  19  20
ENDBRANCH  18  19
ENDBRANCH  17  18
ENDBRANCH  16  17
ENDBRANCH  15  16
ENDBRANCH  14  15
ENDBRANCH  13  14
ENDBRANCH  11  12
ENDBRANCH  10  11
ENDBRANCH   9  10
ENDBRANCH   8   9
ENDBRANCH   7   8
ENDBRANCH   6   7
ENDBRANCH   5   6
ENDBRANCH   3   5
ENDBRANCH   1   3
TORSDOF 16
ENDMDL
MODEL 8
REMARK VINA RESULT:      -4.9     26.849     27.966
REMARK  16 active torsions:
REMARK  status: ('A' for Active; 'I' for Inactive)
REMARK    1  A    between atoms: O_1  and  C_20 
REMARK    2  A    between atoms: C_3  and  C_4 
REMARK    3  A    between atoms: C_3  and  C_5 
REMARK    4  A    between atoms: C_4  and  C_8 
REMARK    5  A    between atoms: C_5  and  C_11 
REMARK    6  A    between atoms: C_6  and  C_7 
REMARK    7  A    between atoms: C_6  and  C_9 
REMARK    8  A    between atoms: C_7  and  C_10 
REMARK    9  A    between atoms: C_8  and  C_12 
REMARK   10  A    between atoms: C_9  and  C_13 
REMARK   11  A    between atoms: C_10  and  C_14 
REMARK   12  A    between atoms: C_11  and  C_15 
REMARK   13  A    between atoms: C_12  and  C_16 
REMARK   14  A    between atoms: C_13  and  C_17 
REMARK   15  A    between atoms: C_14  and  C_18 
REMARK   16  A    between atoms: C_18  and  C_20 
ROOT
HETATM    1  O   UNL     1      32.921   4.903  -7.620  1.00  0.00    -0.776 OA
HETATM    2  H   UNL     1      33.159   5.098  -6.702  1.00  0.00     0.167 HD
ENDROOT
BRANCH   1   3
HETATM    3  C   UNL     1      31.765   5.345  -8.158  1.00  0.00     0.139 C 
HETATM    4  O   UNL     1      30.723   5.249  -7.523  1.00  0.00    -0.650 OA
BRANCH   3   5
HETATM    5  C   UNL     1      31.786   5.952  -9.536  1.00  0.00     0.110 C 
BRANCH   5   6
HETATM    6  C   UNL     1      32.429   5.038 -10.588  1.00  0.00     0.010 C 
BRANCH   6   7
HETATM    7  C   UNL     1      33.862   5.483 -10.901  1.00  0.00     0.001 C 
BRANCH   7   8
HETATM    8  C   UNL     1      34.082   6.945 -10.496  1.00  0.00     0.000 C 
BRANCH   8   9
HETATM    9  C   UNL     1      34.167   7.853 -11.728  1.00  0.00     0.000 C 
BRANCH   9  10
HETATM   10  C   UNL     1      32.830   8.558 -11.977  1.00  0.00     0.004 C 
BRANCH  10  11
HETATM   11  C   UNL     1      32.375   8.396 -13.430  1.00  0.00     0.027 C 
BRANCH  11  12
HETATM   12  C   UNL     1      33.128   7.252 -14.067  1.00  0.00    -0.031 C 
HETATM   13  C   UNL     1      32.594   6.188 -14.700  1.00  0.00    -0.031 C 
BRANCH  13  14
HETATM   14  C   UNL     1      31.123   5.894 -14.907  1.00  0.00     0.027 C 
BRANCH  14  15
HETATM   15  C   UNL     1      30.674   6.278 -16.328  1.00  0.00     0.004 C 
BRANCH  15  16
HETATM   16  C   UNL     1      30.949   5.200 -17.396  1.00  0.00     0.000 C 
BRANCH  16  17
HETATM   17  C   UNL     1      32.335   5.332 -18.048  1.00  0.00     0.000 C 
BRANCH  17  18
HETATM   18  C   UNL     1      32.230   5.310 -19.579  1.00  0.00     0.000 C 
BRANCH  18  19
HETATM   19  C   UNL     1      32.083   6.730 -20.139  1.00  0.00    -0.000 C 
BRANCH  19  20
HETATM   20  C   UNL     1      30.766   6.886 -20.909  1.00  0.00    -0.005 C 
HETATM   21  C   UNL     1      30.217   5.529 -21.341  1.00  0.00     0.005 C 
ENDBRANCH  19  20
ENDBRANCH  18  19
ENDBRANCH  17  18
ENDBRANCH  16  17
ENDBRANCH  15  16
ENDBRANCH  14  15
ENDBRANCH  13  14
ENDBRANCH  11  12
ENDBRANCH  10  11
ENDBRANCH   9  10
ENDBRANCH   8   9
ENDBRANCH   7   8
ENDBRANCH   6   7
ENDBRANCH   5   6
ENDBRANCH   3   5
ENDBRANCH   1   3
TORSDOF 16
ENDMDL
MODEL 9
REMARK VINA RESULT:      -4.9     27.058     29.347
REMARK  16 active torsions:
REMARK  status: ('A' for Active; 'I' for Inactive)
REMARK    1  A    between atoms: O_1  and  C_20 
REMARK    2  A    between atoms: C_3  and  C_4 
REMARK    3  A    between atoms: C_3  and  C_5 
REMARK    4  A    between atoms: C_4  and  C_8 
REMARK    5  A    between atoms: C_5  and  C_11 
REMARK    6  A    between atoms: C_6  and  C_7 
REMARK    7  A    between atoms: C_6  and  C_9 
REMARK    8  A    between atoms: C_7  and  C_10 
REMARK    9  A    between atoms: C_8  and  C_12 
REMARK   10  A    between atoms: C_9  and  C_13 
REMARK   11  A    between atoms: C_10  and  C_14 
REMARK   12  A    between atoms: C_11  and  C_15 
REMARK   13  A    between atoms: C_12  and  C_16 
REMARK   14  A    between atoms: C_13  and  C_17 
REMARK   15  A    between atoms: C_14  and  C_18 
REMARK   16  A    between atoms: C_18  and  C_20 
ROOT
HETATM    1  O   UNL     1      33.796   7.145 -16.395  1.00  0.00    -0.776 OA
HETATM    2  H   UNL     1      34.449   6.708 -15.829  1.00  0.00     0.167 HD
ENDROOT
BRANCH   1   3
HETATM    3  C   UNL     1      32.594   6.585 -16.645  1.00  0.00     0.139 C 
HETATM    4  O   UNL     1      32.342   6.163 -17.766  1.00  0.00    -0.650 OA
BRANCH   3   5
HETATM    5  C   UNL     1      31.584   6.494 -15.531  1.00  0.00     0.110 C 
BRANCH   5   6
HETATM    6  C   UNL     1      30.658   7.716 -15.455  1.00  0.00     0.010 C 
BRANCH   6   7
HETATM    7  C   UNL     1      30.672   8.329 -14.049  1.00  0.00     0.001 C 
BRANCH   7   8
HETATM    8  C   UNL     1      31.357   7.391 -13.050  1.00  0.00     0.000 C 
BRANCH   8   9
HETATM    9  C   UNL     1      30.351   6.835 -12.035  1.00  0.00     0.000 C 
BRANCH   9  10
HETATM   10  C   UNL     1      30.845   5.507 -11.453  1.00  0.00     0.004 C 
BRANCH  10  11
HETATM   11  C   UNL     1      32.196   5.103 -12.048  1.00  0.00     0.027 C 
BRANCH  11  12
HETATM   12  C   UNL     1      33.217   4.987 -10.942  1.00  0.00    -0.031 C 
HETATM   13  C   UNL     1      34.065   5.948 -10.523  1.00  0.00    -0.031 C 
BRANCH  13  14
HETATM   14  C   UNL     1      34.193   7.354 -11.070  1.00  0.00     0.027 C 
BRANCH  14  15
HETATM   15  C   UNL     1      34.356   8.380  -9.934  1.00  0.00     0.004 C 
BRANCH  15  16
HETATM   16  C   UNL     1      33.696   7.965  -8.603  1.00  0.00     0.000 C 
BRANCH  16  17
HETATM   17  C   UNL     1      32.369   8.693  -8.331  1.00  0.00     0.000 C 
BRANCH  17  18
HETATM   18  C   UNL     1      31.170   7.779  -8.613  1.00  0.00     0.000 C 
BRANCH  18  19
HETATM   19  C   UNL     1      30.824   6.931  -7.383  1.00  0.00    -0.000 C 
BRANCH  19  20
HETATM   20  C   UNL     1      30.942   5.434  -7.694  1.00  0.00    -0.005 C 
HETATM   21  C   UNL     1      32.317   4.898  -7.306  1.00  0.00     0.005 C 
ENDBRANCH  19  20
ENDBRANCH  18  19
ENDBRANCH  17  18
ENDBRANCH  16  17
ENDBRANCH  15  16
ENDBRANCH  14  15
ENDBRANCH  13  14
ENDBRANCH  11  12
ENDBRANCH  10  11
ENDBRANCH   9  10
ENDBRANCH   8   9
ENDBRANCH   7   8
ENDBRANCH   6   7
ENDBRANCH   5   6
ENDBRANCH   3   5
ENDBRANCH   1   3
TORSDOF 16
ENDMDL
MODEL 10
REMARK VINA RESULT:      -4.9     26.971     29.054
REMARK  16 active torsions:
REMARK  status: ('A' for Active; 'I' for Inactive)
REMARK    1  A    between atoms: O_1  and  C_20 
REMARK    2  A    between atoms: C_3  and  C_4 
REMARK    3  A    between atoms: C_3  and  C_5 
REMARK    4  A    between atoms: C_4  and  C_8 
REMARK    5  A    between atoms: C_5  and  C_11 
REMARK    6  A    between atoms: C_6  and  C_7 
REMARK    7  A    between atoms: C_6  and  C_9 
REMARK    8  A    between atoms: C_7  and  C_10 
REMARK    9  A    between atoms: C_8  and  C_12 
REMARK   10  A    between atoms: C_9  and  C_13 
REMARK   11  A    between atoms: C_10  and  C_14 
REMARK   12  A    between atoms: C_11  and  C_15 
REMARK   13  A    between atoms: C_12  and  C_16 
REMARK   14  A    between atoms: C_13  and  C_17 
REMARK   15  A    between atoms: C_14  and  C_18 
REMARK   16  A    between atoms: C_18  and  C_20 
ROOT
HETATM    1  O   UNL     1      28.432  10.087 -15.272  1.00  0.00    -0.776 OA
HETATM    2  H   UNL     1      27.483  10.172 -15.103  1.00  0.00     0.167 HD
ENDROOT
BRANCH   1   3
HETATM    3  C   UNL     1      29.306   9.841 -14.274  1.00  0.00     0.139 C 
HETATM    4  O   UNL     1      29.185  10.423 -13.204  1.00  0.00    -0.650 OA
BRANCH   3   5
HETATM    5  C   UNL     1      30.417   8.850 -14.502  1.00  0.00     0.110 C 
BRANCH   5   6
HETATM    6  C   UNL     1      31.700   9.194 -13.732  1.00  0.00     0.010 C 
BRANCH   6   7
HETATM    7  C   UNL     1      32.670   9.996 -14.608  1.00  0.00     0.001 C 
BRANCH   7   8
HETATM    8  C   UNL     1      34.101   9.467 -14.465  1.00  0.00     0.000 C 
BRANCH   8   9
HETATM    9  C   UNL     1      34.109   7.947 -14.263  1.00  0.00     0.000 C 
BRANCH   9  10
HETATM   10  C   UNL     1      34.255   7.222 -15.605  1.00  0.00     0.004 C 
BRANCH  10  11
HETATM   11  C   UNL     1      33.839   5.752 -15.494  1.00  0.00     0.027 C 
BRANCH  11  12
HETATM   12  C   UNL     1      32.332   5.659 -15.457  1.00  0.00    -0.031 C 
HETATM   13  C   UNL     1      31.566   5.424 -14.373  1.00  0.00    -0.031 C 
BRANCH  13  14
HETATM   14  C   UNL     1      32.039   5.192 -12.954  1.00  0.00     0.027 C 
BRANCH  14  15
HETATM   15  C   UNL     1      31.209   6.011 -11.949  1.00  0.00     0.004 C 
BRANCH  15  16
HETATM   16  C   UNL     1      31.379   5.577 -10.479  1.00  0.00     0.000 C 
BRANCH  16  17
HETATM   17  C   UNL     1      32.837   5.633  -9.995  1.00  0.00     0.000 C 
BRANCH  17  18
HETATM   18  C   UNL     1      33.240   7.066  -9.620  1.00  0.00     0.000 C 
BRANCH  18  19
HETATM   19  C   UNL     1      34.284   7.617 -10.598  1.00  0.00    -0.000 C 
BRANCH  19  20
HETATM   20  C   UNL     1      34.668   9.058 -10.242  1.00  0.00    -0.005 C 
HETATM   21  C   UNL     1      35.889   9.514 -11.033  1.00  0.00     0.005 C 
ENDBRANCH  19  20
ENDBRANCH  18  19
ENDBRANCH  17  18
ENDBRANCH  16  17
ENDBRANCH  15  16
ENDBRANCH  14  15
ENDBRANCH  13  14
ENDBRANCH  11  12
ENDBRANCH  10  11
ENDBRANCH   9  10
ENDBRANCH   8   9
ENDBRANCH   7   8
ENDBRANCH   6   7
ENDBRANCH   5   6
ENDBRANCH   3   5
ENDBRANCH   1   3
TORSDOF 16
ENDMDL
MODEL 11
REMARK VINA RESULT:      -4.9     27.171     29.260
REMARK  16 active torsions:
REMARK  status: ('A' for Active; 'I' for Inactive)
REMARK    1  A    between atoms: O_1  and  C_20 
REMARK    2  A    between atoms: C_3  and  C_4 
REMARK    3  A    between atoms: C_3  and  C_5 
REMARK    4  A    between atoms: C_4  and  C_8 
REMARK    5  A    between atoms: C_5  and  C_11 
REMARK    6  A    between atoms: C_6  and  C_7 
REMARK    7  A    between atoms: C_6  and  C_9 
REMARK    8  A    between atoms: C_7  and  C_10 
REMARK    9  A    between atoms: C_8  and  C_12 
REMARK   10  A    between atoms: C_9  and  C_13 
REMARK   11  A    between atoms: C_10  and  C_14 
REMARK   12  A    between atoms: C_11  and  C_15 
REMARK   13  A    between atoms: C_12  and  C_16 
REMARK   14  A    between atoms: C_13  and  C_17 
REMARK   15  A    between atoms: C_14  and  C_18 
REMARK   16  A    between atoms: C_18  and  C_20 
ROOT
HETATM    1  O   UNL     1      31.082   5.355 -19.535  1.00  0.00    -0.776 OA
HETATM    2  H   UNL     1      30.284   4.863 -19.294  1.00  0.00     0.167 HD
ENDROOT
BRANCH   1   3
HETATM    3  C   UNL     1      32.214   5.264 -18.805  1.00  0.00     0.139 C 
HETATM    4  O   UNL     1      33.301   5.393 -19.352  1.00  0.00    -0.650 OA
BRANCH   3   5
HETATM    5  C   UNL     1      32.111   5.004 -17.325  1.00  0.00     0.110 C 
BRANCH   5   6
HETATM    6  C   UNL     1      30.698   5.232 -16.770  1.00  0.00     0.010 C 
BRANCH   6   7
HETATM    7  C   UNL     1      30.722   5.353 -15.241  1.00  0.00     0.001 C 
BRANCH   7   8
HETATM    8  C   UNL     1      32.160   5.339 -14.714  1.00  0.00     0.000 C 
BRANCH   8   9
HETATM    9  C   UNL     1      32.185   5.301 -13.181  1.00  0.00     0.000 C 
BRANCH   9  10
HETATM   10  C   UNL     1      31.087   6.196 -12.597  1.00  0.00     0.004 C 
BRANCH  10  11
HETATM   11  C   UNL     1      30.723   5.776 -11.171  1.00  0.00     0.027 C 
BRANCH  11  12
HETATM   12  C   UNL     1      30.672   6.998 -10.285  1.00  0.00    -0.031 C 
HETATM   13  C   UNL     1      31.671   7.478  -9.517  1.00  0.00    -0.031 C 
BRANCH  13  14
HETATM   14  C   UNL     1      33.062   6.901  -9.362  1.00  0.00     0.027 C 
BRANCH  14  15
HETATM   15  C   UNL     1      34.140   7.966  -9.631  1.00  0.00     0.004 C 
BRANCH  15  16
HETATM   16  C   UNL     1      34.911   7.771 -10.953  1.00  0.00     0.000 C 
BRANCH  16  17
HETATM   17  C   UNL     1      34.138   8.270 -12.185  1.00  0.00     0.000 C 
BRANCH  17  18
HETATM   18  C   UNL     1      34.302   9.785 -12.365  1.00  0.00     0.000 C 
BRANCH  18  19
HETATM   19  C   UNL     1      33.080  10.391 -13.064  1.00  0.00    -0.000 C 
BRANCH  19  20
HETATM   20  C   UNL     1      31.776   9.836 -12.476  1.00  0.00    -0.005 C 
HETATM   21  C   UNL     1      31.249  10.734 -11.361  1.00  0.00     0.005 C 
ENDBRANCH  19  20
ENDBRANCH  18  19
ENDBRANCH  17  18
ENDBRANCH  16  17
ENDBRANCH  15  16
ENDBRANCH  14  15
ENDBRANCH  13  14
ENDBRANCH  11  12
ENDBRANCH  10  11
ENDBRANCH   9  10
ENDBRANCH   8   9
ENDBRANCH   7   8
ENDBRANCH   6   7
ENDBRANCH   5   6
ENDBRANCH   3   5
ENDBRANCH   1   3
TORSDOF 16
ENDMDL
MODEL 12
REMARK VINA RESULT:      -4.8     27.402     29.525
REMARK  16 active torsions:
REMARK  status: ('A' for Active; 'I' for Inactive)
REMARK    1  A    between atoms: O_1  and  C_20 
REMARK    2  A    between atoms: C_3  and  C_4 
REMARK    3  A    between atoms: C_3  and  C_5 
REMARK    4  A    between atoms: C_4  and  C_8 
REMARK    5  A    between atoms: C_5  and  C_11 
REMARK    6  A    between atoms: C_6  and  C_7 
REMARK    7  A    between atoms: C_6  and  C_9 
REMARK    8  A    between atoms: C_7  and  C_10 
REMARK    9  A    between atoms: C_8  and  C_12 
REMARK   10  A    between atoms: C_9  and  C_13 
REMARK   11  A    between atoms: C_10  and  C_14 
REMARK   12  A    between atoms: C_11  and  C_15 
REMARK   13  A    between atoms: C_12  and  C_16 
REMARK   14  A    between atoms: C_13  and  C_17 
REMARK   15  A    between atoms: C_14  and  C_18 
REMARK   16  A    between atoms: C_18  and  C_20 
ROOT
HETATM    1  O   UNL     1      32.401   5.192 -23.123  1.00  0.00    -0.776 OA
HETATM    2  H   UNL     1      32.114   6.037 -23.497  1.00  0.00     0.167 HD
ENDROOT
BRANCH   1   3
HETATM    3  C   UNL     1      32.117   4.853 -21.848  1.00  0.00     0.139 C 
HETATM    4  O   UNL     1      32.953   4.263 -21.176  1.00  0.00    -0.650 OA
BRANCH   3   5
HETATM    5  C   UNL     1      30.770   5.212 -21.278  1.00  0.00     0.110 C 
BRANCH   5   6
HETATM    6  C   UNL     1      30.605   6.716 -21.023  1.00  0.00     0.010 C 
BRANCH   6   7
HETATM    7  C   UNL     1      31.087   7.092 -19.617  1.00  0.00     0.001 C 
BRANCH   7   8
HETATM    8  C   UNL     1      32.429   7.830 -19.678  1.00  0.00     0.000 C 
BRANCH   8   9
HETATM    9  C   UNL     1      33.377   7.343 -18.576  1.00  0.00     0.000 C 
BRANCH   9  10
HETATM   10  C   UNL     1      32.928   5.982 -18.035  1.00  0.00     0.004 C 
BRANCH  10  11
HETATM   11  C   UNL     1      33.391   5.774 -16.591  1.00  0.00     0.027 C 
BRANCH  11  12
HETATM   12  C   UNL     1      32.352   4.975 -15.841  1.00  0.00    -0.031 C 
HETATM   13  C   UNL     1      31.386   5.463 -15.038  1.00  0.00    -0.031 C 
BRANCH  13  14
HETATM   14  C   UNL     1      31.128   6.915 -14.699  1.00  0.00     0.027 C 
BRANCH  14  15
HETATM   15  C   UNL     1      30.337   7.616 -15.818  1.00  0.00     0.004 C 
BRANCH  15  16
HETATM   16  C   UNL     1      30.978   8.922 -16.328  1.00  0.00     0.000 C 
BRANCH  16  17
HETATM   17  C   UNL     1      31.647   9.745 -15.215  1.00  0.00     0.000 C 
BRANCH  17  18
HETATM   18  C   UNL     1      33.055  10.193 -15.627  1.00  0.00     0.000 C 
BRANCH  18  19
HETATM   19  C   UNL     1      34.089   9.101 -15.329  1.00  0.00    -0.000 C 
BRANCH  19  20
HETATM   20  C   UNL     1      34.706   9.289 -13.939  1.00  0.00    -0.005 C 
HETATM   21  C   UNL     1      34.056   8.361 -12.917  1.00  0.00     0.005 C 
ENDBRANCH  19  20
ENDBRANCH  18  19
ENDBRANCH  17  18
ENDBRANCH  16  17
ENDBRANCH  15  16
ENDBRANCH  14  15
ENDBRANCH  13  14
ENDBRANCH  11  12
ENDBRANCH  10  11
ENDBRANCH   9  10
ENDBRANCH   8   9
ENDBRANCH   7   8
ENDBRANCH   6   7
ENDBRANCH   5   6
ENDBRANCH   3   5
ENDBRANCH   1   3
TORSDOF 16
ENDMDL
MODEL 13
REMARK VINA RESULT:      -4.8     26.658     28.023
REMARK  16 active torsions:
REMARK  status: ('A' for Active; 'I' for Inactive)
REMARK    1  A    between atoms: O_1  and  C_20 
REMARK    2  A    between atoms: C_3  and  C_4 
REMARK    3  A    between atoms: C_3  and  C_5 
REMARK    4  A    between atoms: C_4  and  C_8 
REMARK    5  A    between atoms: C_5  and  C_11 
REMARK    6  A    between atoms: C_6  and  C_7 
REMARK    7  A    between atoms: C_6  and  C_9 
REMARK    8  A    between atoms: C_7  and  C_10 
REMARK    9  A    between atoms: C_8  and  C_12 
REMARK   10  A    between atoms: C_9  and  C_13 
REMARK   11  A    between atoms: C_10  and  C_14 
REMARK   12  A    between atoms: C_11  and  C_15 
REMARK   13  A    between atoms: C_12  and  C_16 
REMARK   14  A    between atoms: C_13  and  C_17 
REMARK   15  A    between atoms: C_14  and  C_18 
REMARK   16  A    between atoms: C_18  and  C_20 
ROOT
HETATM    1  O   UNL     1      28.273  10.278 -14.284  1.00  0.00    -0.776 OA
HETATM    2  H   UNL     1      28.481  10.912 -13.582  1.00  0.00     0.167 HD
ENDROOT
BRANCH   1   3
HETATM    3  C   UNL     1      29.123  10.054 -15.307  1.00  0.00     0.139 C 
HETATM    4  O   UNL     1      28.980  10.662 -16.360  1.00  0.00    -0.650 OA
BRANCH   3   5
HETATM    5  C   UNL     1      30.237   9.056 -15.128  1.00  0.00     0.110 C 
BRANCH   5   6
HETATM    6  C   UNL     1      31.110   8.896 -16.380  1.00  0.00     0.010 C 
BRANCH   6   7
HETATM    7  C   UNL     1      32.554   8.542 -16.001  1.00  0.00     0.001 C 
BRANCH   7   8
HETATM    8  C   UNL     1      32.831   8.877 -14.531  1.00  0.00     0.000 C 
BRANCH   8   9
HETATM    9  C   UNL     1      33.676   7.783 -13.866  1.00  0.00     0.000 C 
BRANCH   9  10
HETATM   10  C   UNL     1      32.792   6.838 -13.046  1.00  0.00     0.004 C 
BRANCH  10  11
HETATM   11  C   UNL     1      32.552   5.517 -13.781  1.00  0.00     0.027 C 
BRANCH  11  12
HETATM   12  C   UNL     1      31.146   5.496 -14.330  1.00  0.00    -0.031 C 
HETATM   13  C   UNL     1      30.782   5.259 -15.606  1.00  0.00    -0.031 C 
BRANCH  13  14
HETATM   14  C   UNL     1      31.697   4.970 -16.777  1.00  0.00     0.027 C 
BRANCH  14  15
HETATM   15  C   UNL     1      31.188   5.649 -18.061  1.00  0.00     0.004 C 
BRANCH  15  16
HETATM   16  C   UNL     1      32.006   5.313 -19.325  1.00  0.00     0.000 C 
BRANCH  16  17
HETATM   17  C   UNL     1      32.363   6.552 -20.163  1.00  0.00     0.000 C 
BRANCH  17  18
HETATM   18  C   UNL     1      33.737   7.110 -19.767  1.00  0.00     0.000 C 
BRANCH  18  19
HETATM   19  C   UNL     1      34.319   7.983 -20.886  1.00  0.00    -0.000 C 
BRANCH  19  20
HETATM   20  C   UNL     1      33.518   7.823 -22.184  1.00  0.00    -0.005 C 
HETATM   21  C   UNL     1      34.185   8.566 -23.337  1.00  0.00     0.005 C 
ENDBRANCH  19  20
ENDBRANCH  18  19
ENDBRANCH  17  18
ENDBRANCH  16  17
ENDBRANCH  15  16
ENDBRANCH  14  15
ENDBRANCH  13  14
ENDBRANCH  11  12
ENDBRANCH  10  11
ENDBRANCH   9  10
ENDBRANCH   8   9
ENDBRANCH   7   8
ENDBRANCH   6   7
ENDBRANCH   5   6
ENDBRANCH   3   5
ENDBRANCH   1   3
TORSDOF 16
ENDMDL
MODEL 14
REMARK VINA RESULT:      -4.8     25.637     27.402
REMARK  16 active torsions:
REMARK  status: ('A' for Active; 'I' for Inactive)
REMARK    1  A    between atoms: O_1  and  C_20 
REMARK    2  A    between atoms: C_3  and  C_4 
REMARK    3  A    between atoms: C_3  and  C_5 
REMARK    4  A    between atoms: C_4  and  C_8 
REMARK    5  A    between atoms: C_5  and  C_11 
REMARK    6  A    between atoms: C_6  and  C_7 
REMARK    7  A    between atoms: C_6  and  C_9 
REMARK    8  A    between atoms: C_7  and  C_10 
REMARK    9  A    between atoms: C_8  and  C_12 
REMARK   10  A    between atoms: C_9  and  C_13 
REMARK   11  A    between atoms: C_10  and  C_14 
REMARK   12  A    between atoms: C_11  and  C_15 
REMARK   13  A    between atoms: C_12  and  C_16 
REMARK   14  A    between atoms: C_13  and  C_17 
REMARK   15  A    between atoms: C_14  and  C_18 
REMARK   16  A    between atoms: C_18  and  C_20 
ROOT
HETATM    1  O   UNL     1      28.080  10.551 -14.341  1.00  0.00    -0.776 OA
HETATM    2  H   UNL     1      28.711   9.816 -14.324  1.00  0.00     0.167 HD
ENDROOT
BRANCH   1   3
HETATM    3  C   UNL     1      28.494  11.835 -14.309  1.00  0.00     0.139 C 
HETATM    4  O   UNL     1      28.518  12.439 -13.245  1.00  0.00    -0.650 OA
BRANCH   3   5
HETATM    5  C   UNL     1      28.919  12.499 -15.593  1.00  0.00     0.110 C 
BRANCH   5   6
HETATM    6  C   UNL     1      30.410  12.312 -15.903  1.00  0.00     0.010 C 
BRANCH   6   7
HETATM    7  C   UNL     1      30.661  10.977 -16.616  1.00  0.00     0.001 C 
BRANCH   7   8
HETATM    8  C   UNL     1      30.649  11.158 -18.137  1.00  0.00     0.000 C 
BRANCH   8   9
HETATM    9  C   UNL     1      29.365  10.588 -18.751  1.00  0.00     0.000 C 
BRANCH   9  10
HETATM   10  C   UNL     1      29.690   9.651 -19.919  1.00  0.00     0.004 C 
BRANCH  10  11
HETATM   11  C   UNL     1      31.177   9.289 -19.947  1.00  0.00     0.027 C 
BRANCH  11  12
HETATM   12  C   UNL     1      31.346   7.833 -19.584  1.00  0.00    -0.031 C 
HETATM   13  C   UNL     1      32.502   7.204 -19.291  1.00  0.00    -0.031 C 
BRANCH  13  14
HETATM   14  C   UNL     1      33.889   7.809 -19.266  1.00  0.00     0.027 C 
BRANCH  14  15
HETATM   15  C   UNL     1      34.131   8.592 -17.963  1.00  0.00     0.004 C 
BRANCH  15  16
HETATM   16  C   UNL     1      34.008   7.746 -16.680  1.00  0.00     0.000 C 
BRANCH  16  17
HETATM   17  C   UNL     1      33.001   8.320 -15.670  1.00  0.00     0.000 C 
BRANCH  17  18
HETATM   18  C   UNL     1      32.025   7.239 -15.187  1.00  0.00     0.000 C 
BRANCH  18  19
HETATM   19  C   UNL     1      30.689   7.331 -15.934  1.00  0.00    -0.000 C 
BRANCH  19  20
HETATM   20  C   UNL     1      30.308   5.980 -16.551  1.00  0.00    -0.005 C 
HETATM   21  C   UNL     1      31.461   4.986 -16.456  1.00  0.00     0.005 C 
ENDBRANCH  19  20
ENDBRANCH  18  19
ENDBRANCH  17  18
ENDBRANCH  16  17
ENDBRANCH  15  16
ENDBRANCH  14  15
ENDBRANCH  13  14
ENDBRANCH  11  12
ENDBRANCH  10  11
ENDBRANCH   9  10
ENDBRANCH   8   9
ENDBRANCH   7   8
ENDBRANCH   6   7
ENDBRANCH   5   6
ENDBRANCH   3   5
ENDBRANCH   1   3
TORSDOF 16
ENDMDL
MODEL 15
REMARK VINA RESULT:      -4.8     27.377     29.955
REMARK  16 active torsions:
REMARK  status: ('A' for Active; 'I' for Inactive)
REMARK    1  A    between atoms: O_1  and  C_20 
REMARK    2  A    between atoms: C_3  and  C_4 
REMARK    3  A    between atoms: C_3  and  C_5 
REMARK    4  A    between atoms: C_4  and  C_8 
REMARK    5  A    between atoms: C_5  and  C_11 
REMARK    6  A    between atoms: C_6  and  C_7 
REMARK    7  A    between atoms: C_6  and  C_9 
REMARK    8  A    between atoms: C_7  and  C_10 
REMARK    9  A    between atoms: C_8  and  C_12 
REMARK   10  A    between atoms: C_9  and  C_13 
REMARK   11  A    between atoms: C_10  and  C_14 
REMARK   12  A    between atoms: C_11  and  C_15 
REMARK   13  A    between atoms: C_12  and  C_16 
REMARK   14  A    between atoms: C_13  and  C_17 
REMARK   15  A    between atoms: C_14  and  C_18 
REMARK   16  A    between atoms: C_18  and  C_20 
ROOT
HETATM    1  O   UNL     1      32.746   3.999 -21.440  1.00  0.00    -0.776 OA
HETATM    2  H   UNL     1      32.688   3.049 -21.611  1.00  0.00     0.167 HD
ENDROOT
BRANCH   1   3
HETATM    3  C   UNL     1      31.818   4.859 -21.910  1.00  0.00     0.139 C 
HETATM    4  O   UNL     1      31.831   5.179 -23.092  1.00  0.00    -0.650 OA
BRANCH   3   5
HETATM    5  C   UNL     1      30.782   5.406 -20.964  1.00  0.00     0.110 C 
BRANCH   5   6
HETATM    6  C   UNL     1      31.270   5.478 -19.511  1.00  0.00     0.010 C 
BRANCH   6   7
HETATM    7  C   UNL     1      31.154   6.905 -18.962  1.00  0.00     0.001 C 
BRANCH   7   8
HETATM    8  C   UNL     1      31.097   6.899 -17.431  1.00  0.00     0.000 C 
BRANCH   8   9
HETATM    9  C   UNL     1      32.489   7.122 -16.826  1.00  0.00     0.000 C 
BRANCH   9  10
HETATM   10  C   UNL     1      33.164   5.783 -16.511  1.00  0.00     0.004 C 
BRANCH  10  11
HETATM   11  C   UNL     1      33.045   5.434 -15.025  1.00  0.00     0.027 C 
BRANCH  11  12
HETATM   12  C   UNL     1      32.861   6.701 -14.225  1.00  0.00    -0.031 C 
HETATM   13  C   UNL     1      32.065   6.867 -13.149  1.00  0.00    -0.031 C 
BRANCH  13  14
HETATM   14  C   UNL     1      31.172   5.827 -12.506  1.00  0.00     0.027 C 
BRANCH  14  15
HETATM   15  C   UNL     1      30.644   6.313 -11.144  1.00  0.00     0.004 C 
BRANCH  15  16
HETATM   16  C   UNL     1      31.009   5.398  -9.958  1.00  0.00     0.000 C 
BRANCH  16  17
HETATM   17  C   UNL     1      32.523   5.307  -9.704  1.00  0.00     0.000 C 
BRANCH  17  18
HETATM   18  C   UNL     1      33.011   6.485  -8.850  1.00  0.00     0.000 C 
BRANCH  18  19
HETATM   19  C   UNL     1      32.244   6.559  -7.525  1.00  0.00    -0.000 C 
BRANCH  19  20
HETATM   20  C   UNL     1      32.533   5.333  -6.650  1.00  0.00    -0.005 C 
HETATM   21  C   UNL     1      33.855   5.489  -5.904  1.00  0.00     0.005 C 
ENDBRANCH  19  20
ENDBRANCH  18  19
ENDBRANCH  17  18
ENDBRANCH  16  17
ENDBRANCH  15  16
ENDBRANCH  14  15
ENDBRANCH  13  14
ENDBRANCH  11  12
ENDBRANCH  10  11
ENDBRANCH   9  10
ENDBRANCH   8   9
ENDBRANCH   7   8
ENDBRANCH   6   7
ENDBRANCH   5   6
ENDBRANCH   3   5
ENDBRANCH   1   3
TORSDOF 16
ENDMDL
MODEL 16
REMARK VINA RESULT:      -4.8     26.318     27.855
REMARK  16 active torsions:
REMARK  status: ('A' for Active; 'I' for Inactive)
REMARK    1  A    between atoms: O_1  and  C_20 
REMARK    2  A    between atoms: C_3  and  C_4 
REMARK    3  A    between atoms: C_3  and  C_5 
REMARK    4  A    between atoms: C_4  and  C_8 
REMARK    5  A    between atoms: C_5  and  C_11 
REMARK    6  A    between atoms: C_6  and  C_7 
REMARK    7  A    between atoms: C_6  and  C_9 
REMARK    8  A    between atoms: C_7  and  C_10 
REMARK    9  A    between atoms: C_8  and  C_12 
REMARK   10  A    between atoms: C_9  and  C_13 
REMARK   11  A    between atoms: C_10  and  C_14 
REMARK   12  A    between atoms: C_11  and  C_15 
REMARK   13  A    between atoms: C_12  and  C_16 
REMARK   14  A    between atoms: C_13  and  C_17 
REMARK   15  A    between atoms: C_14  and  C_18 
REMARK   16  A    between atoms: C_18  and  C_20 
ROOT
HETATM    1  O   UNL     1      32.526   6.662 -11.380  1.00  0.00    -0.776 OA
HETATM    2  H   UNL     1      32.191   7.531 -11.643  1.00  0.00     0.167 HD
ENDROOT
BRANCH   1   3
HETATM    3  C   UNL     1      32.814   5.711 -12.293  1.00  0.00     0.139 C 
HETATM    4  O   UNL     1      32.844   4.535 -11.956  1.00  0.00    -0.650 OA
BRANCH   3   5
HETATM    5  C   UNL     1      33.092   6.123 -13.715  1.00  0.00     0.110 C 
BRANCH   5   6
HETATM    6  C   UNL     1      32.290   5.314 -14.745  1.00  0.00     0.010 C 
BRANCH   6   7
HETATM    7  C   UNL     1      30.833   5.791 -14.804  1.00  0.00     0.001 C 
BRANCH   7   8
HETATM    8  C   UNL     1      30.488   6.322 -16.199  1.00  0.00     0.000 C 
BRANCH   8   9
HETATM    9  C   UNL     1      30.550   5.204 -17.246  1.00  0.00     0.000 C 
BRANCH   9  10
HETATM   10  C   UNL     1      31.313   5.668 -18.491  1.00  0.00     0.004 C 
BRANCH  10  11
HETATM   11  C   UNL     1      31.230   7.187 -18.664  1.00  0.00     0.027 C 
BRANCH  11  12
HETATM   12  C   UNL     1      32.543   7.703 -19.201  1.00  0.00    -0.031 C 
HETATM   13  C   UNL     1      33.673   7.917 -18.498  1.00  0.00    -0.031 C 
BRANCH  13  14
HETATM   14  C   UNL     1      33.881   7.697 -17.014  1.00  0.00     0.027 C 
BRANCH  14  15
HETATM   15  C   UNL     1      33.806   9.024 -16.239  1.00  0.00     0.004 C 
BRANCH  15  16
HETATM   16  C   UNL     1      32.410   9.351 -15.670  1.00  0.00     0.000 C 
BRANCH  16  17
HETATM   17  C   UNL     1      31.759  10.578 -16.329  1.00  0.00     0.000 C 
BRANCH  17  18
HETATM   18  C   UNL     1      30.239  10.401 -16.449  1.00  0.00     0.000 C 
BRANCH  18  19
HETATM   19  C   UNL     1      29.793  10.461 -17.914  1.00  0.00    -0.000 C 
BRANCH  19  20
HETATM   20  C   UNL     1      29.624  11.911 -18.381  1.00  0.00    -0.005 C 
HETATM   21  C   UNL     1      28.516  12.029 -19.423  1.00  0.00     0.005 C 
ENDBRANCH  19  20
ENDBRANCH  18  19
ENDBRANCH  17  18
ENDBRANCH  16  17
ENDBRANCH  15  16
ENDBRANCH  14  15
ENDBRANCH  13  14
ENDBRANCH  11  12
ENDBRANCH  10  11
ENDBRANCH   9  10
ENDBRANCH   8   9
ENDBRANCH   7   8
ENDBRANCH   6   7
ENDBRANCH   5   6
ENDBRANCH   3   5
ENDBRANCH   1   3
TORSDOF 16
ENDMDL
MODEL 17
REMARK VINA RESULT:      -4.8     26.164     28.361
REMARK  16 active torsions:
REMARK  status: ('A' for Active; 'I' for Inactive)
REMARK    1  A    between atoms: O_1  and  C_20 
REMARK    2  A    between atoms: C_3  and  C_4 
REMARK    3  A    between atoms: C_3  and  C_5 
REMARK    4  A    between atoms: C_4  and  C_8 
REMARK    5  A    between atoms: C_5  and  C_11 
REMARK    6  A    between atoms: C_6  and  C_7 
REMARK    7  A    between atoms: C_6  and  C_9 
REMARK    8  A    between atoms: C_7  and  C_10 
REMARK    9  A    between atoms: C_8  and  C_12 
REMARK   10  A    between atoms: C_9  and  C_13 
REMARK   11  A    between atoms: C_10  and  C_14 
REMARK   12  A    between atoms: C_11  and  C_15 
REMARK   13  A    between atoms: C_12  and  C_16 
REMARK   14  A    between atoms: C_13  and  C_17 
REMARK   15  A    between atoms: C_14  and  C_18 
REMARK   16  A    between atoms: C_18  and  C_20 
ROOT
HETATM    1  O   UNL     1      29.046  10.540 -12.462  1.00  0.00    -0.776 OA
HETATM    2  H   UNL     1      28.963  10.685 -11.509  1.00  0.00     0.167 HD
ENDROOT
BRANCH   1   3
HETATM    3  C   UNL     1      30.122  10.976 -13.151  1.00  0.00     0.139 C 
HETATM    4  O   UNL     1      30.879  11.792 -12.641  1.00  0.00    -0.650 OA
BRANCH   3   5
HETATM    5  C   UNL     1      30.367  10.446 -14.539  1.00  0.00     0.110 C 
BRANCH   5   6
HETATM    6  C   UNL     1      31.360   9.276 -14.571  1.00  0.00     0.010 C 
BRANCH   6   7
HETATM    7  C   UNL     1      30.695   7.977 -14.099  1.00  0.00     0.001 C 
BRANCH   7   8
HETATM    8  C   UNL     1      31.609   6.773 -14.347  1.00  0.00     0.000 C 
BRANCH   8   9
HETATM    9  C   UNL     1      31.179   5.570 -13.500  1.00  0.00     0.000 C 
BRANCH   9  10
HETATM   10  C   UNL     1      30.564   6.031 -12.175  1.00  0.00     0.004 C 
BRANCH  10  11
HETATM   11  C   UNL     1      31.112   5.225 -10.994  1.00  0.00     0.027 C 
BRANCH  11  12
HETATM   12  C   UNL     1      32.529   4.797 -11.293  1.00  0.00    -0.031 C 
HETATM   13  C   UNL     1      33.657   5.443 -10.938  1.00  0.00    -0.031 C 
BRANCH  13  14
HETATM   14  C   UNL     1      33.762   6.744 -10.170  1.00  0.00     0.027 C 
BRANCH  14  15
HETATM   15  C   UNL     1      34.449   7.834 -11.012  1.00  0.00     0.004 C 
BRANCH  15  16
HETATM   16  C   UNL     1      33.577   9.079 -11.275  1.00  0.00     0.000 C 
BRANCH  16  17
HETATM   17  C   UNL     1      32.095   8.867 -10.925  1.00  0.00     0.000 C 
BRANCH  17  18
HETATM   18  C   UNL     1      31.704   9.659  -9.670  1.00  0.00     0.000 C 
BRANCH  18  19
HETATM   19  C   UNL     1      30.537   8.987  -8.938  1.00  0.00    -0.000 C 
BRANCH  19  20
HETATM   20  C   UNL     1      31.010   8.320  -7.640  1.00  0.00    -0.005 C 
HETATM   21  C   UNL     1      30.940   6.800  -7.745  1.00  0.00     0.005 C 
ENDBRANCH  19  20
ENDBRANCH  18  19
ENDBRANCH  17  18
ENDBRANCH  16  17
ENDBRANCH  15  16
ENDBRANCH  14  15
ENDBRANCH  13  14
ENDBRANCH  11  12
ENDBRANCH  10  11
ENDBRANCH   9  10
ENDBRANCH   8   9
ENDBRANCH   7   8
ENDBRANCH   6   7
ENDBRANCH   5   6
ENDBRANCH   3   5
ENDBRANCH   1   3
TORSDOF 16
ENDMDL
MODEL 18
REMARK VINA RESULT:      -4.7     26.599     28.321
REMARK  16 active torsions:
REMARK  status: ('A' for Active; 'I' for Inactive)
REMARK    1  A    between atoms: O_1  and  C_20 
REMARK    2  A    between atoms: C_3  and  C_4 
REMARK    3  A    between atoms: C_3  and  C_5 
REMARK    4  A    between atoms: C_4  and  C_8 
REMARK    5  A    between atoms: C_5  and  C_11 
REMARK    6  A    between atoms: C_6  and  C_7 
REMARK    7  A    between atoms: C_6  and  C_9 
REMARK    8  A    between atoms: C_7  and  C_10 
REMARK    9  A    between atoms: C_8  and  C_12 
REMARK   10  A    between atoms: C_9  and  C_13 
REMARK   11  A    between atoms: C_10  and  C_14 
REMARK   12  A    between atoms: C_11  and  C_15 
REMARK   13  A    between atoms: C_12  and  C_16 
REMARK   14  A    between atoms: C_13  and  C_17 
REMARK   15  A    between atoms: C_14  and  C_18 
REMARK   16  A    between atoms: C_18  and  C_20 
ROOT
HETATM    1  O   UNL     1      32.361   4.615 -15.986  1.00  0.00    -0.776 OA
HETATM    2  H   UNL     1      32.692   3.818 -15.549  1.00  0.00     0.167 HD
ENDROOT
BRANCH   1   3
HETATM    3  C   UNL     1      31.304   5.299 -15.500  1.00  0.00     0.139 C 
HETATM    4  O   UNL     1      30.305   5.445 -16.192  1.00  0.00    -0.650 OA
BRANCH   3   5
HETATM    5  C   UNL     1      31.379   5.869 -14.108  1.00  0.00     0.110 C 
BRANCH   5   6
HETATM    6  C   UNL     1      32.534   5.289 -13.281  1.00  0.00     0.010 C 
BRANCH   6   7
HETATM    7  C   UNL     1      32.011   4.608 -12.009  1.00  0.00     0.001 C 
BRANCH   7   8
HETATM    8  C   UNL     1      30.730   5.286 -11.513  1.00  0.00     0.000 C 
BRANCH   8   9
HETATM    9  C   UNL     1      30.921   5.866 -10.107  1.00  0.00     0.000 C 
BRANCH   9  10
HETATM   10  C   UNL     1      31.172   7.376 -10.171  1.00  0.00     0.004 C 
BRANCH  10  11
HETATM   11  C   UNL     1      32.389   7.777  -9.332  1.00  0.00     0.027 C 
BRANCH  11  12
HETATM   12  C   UNL     1      33.596   6.997  -9.796  1.00  0.00    -0.031 C 
HETATM   13  C   UNL     1      34.483   7.371 -10.739  1.00  0.00    -0.031 C 
BRANCH  13  14
HETATM   14  C   UNL     1      34.467   8.648 -11.553  1.00  0.00     0.027 C 
BRANCH  14  15
HETATM   15  C   UNL     1      34.001   8.384 -12.995  1.00  0.00     0.004 C 
BRANCH  15  16
HETATM   16  C   UNL     1      33.428   9.621 -13.716  1.00  0.00     0.000 C 
BRANCH  16  17
HETATM   17  C   UNL     1      32.308  10.317 -12.927  1.00  0.00     0.000 C 
BRANCH  17  18
HETATM   18  C   UNL     1      31.002   9.515 -12.996  1.00  0.00     0.000 C 
BRANCH  18  19
HETATM   19  C   UNL     1      29.801  10.438 -13.236  1.00  0.00    -0.000 C 
BRANCH  19  20
HETATM   20  C   UNL     1      30.150  11.548 -14.234  1.00  0.00    -0.005 C 
HETATM   21  C   UNL     1      29.662  11.200 -15.637  1.00  0.00     0.005 C 
ENDBRANCH  19  20
ENDBRANCH  18  19
ENDBRANCH  17  18
ENDBRANCH  16  17
ENDBRANCH  15  16
ENDBRANCH  14  15
ENDBRANCH  13  14
ENDBRANCH  11  12
ENDBRANCH  10  11
ENDBRANCH   9  10
ENDBRANCH   8   9
ENDBRANCH   7   8
ENDBRANCH   6   7
ENDBRANCH   5   6
ENDBRANCH   3   5
ENDBRANCH   1   3
TORSDOF 16
ENDMDL
MODEL 19
REMARK VINA RESULT:      -4.7     26.173     28.475
REMARK  16 active torsions:
REMARK  status: ('A' for Active; 'I' for Inactive)
REMARK    1  A    between atoms: O_1  and  C_20 
REMARK    2  A    between atoms: C_3  and  C_4 
REMARK    3  A    between atoms: C_3  and  C_5 
REMARK    4  A    between atoms: C_4  and  C_8 
REMARK    5  A    between atoms: C_5  and  C_11 
REMARK    6  A    between atoms: C_6  and  C_7 
REMARK    7  A    between atoms: C_6  and  C_9 
REMARK    8  A    between atoms: C_7  and  C_10 
REMARK    9  A    between atoms: C_8  and  C_12 
REMARK   10  A    between atoms: C_9  and  C_13 
REMARK   11  A    between atoms: C_10  and  C_14 
REMARK   12  A    between atoms: C_11  and  C_15 
REMARK   13  A    between atoms: C_12  and  C_16 
REMARK   14  A    between atoms: C_13  and  C_17 
REMARK   15  A    between atoms: C_14  and  C_18 
REMARK   16  A    between atoms: C_18  and  C_20 
ROOT
HETATM    1  O   UNL     1      29.006  10.159 -15.653  1.00  0.00    -0.776 OA
HETATM    2  H   UNL     1      29.303  10.677 -14.891  1.00  0.00     0.167 HD
ENDROOT
BRANCH   1   3
HETATM    3  C   UNL     1      29.701  10.143 -16.809  1.00  0.00     0.139 C 
HETATM    4  O   UNL     1      29.178  10.552 -17.837  1.00  0.00    -0.650 OA
BRANCH   3   5
HETATM    5  C   UNL     1      31.113   9.620 -16.807  1.00  0.00     0.110 C 
BRANCH   5   6
HETATM    6  C   UNL     1      31.526   8.993 -18.146  1.00  0.00     0.010 C 
BRANCH   6   7
HETATM    7  C   UNL     1      30.850   7.631 -18.346  1.00  0.00     0.001 C 
BRANCH   7   8
HETATM    8  C   UNL     1      31.894   6.514 -18.456  1.00  0.00     0.000 C 
BRANCH   8   9
HETATM    9  C   UNL     1      31.564   5.356 -17.507  1.00  0.00     0.000 C 
BRANCH   9  10
HETATM   10  C   UNL     1      30.536   5.790 -16.457  1.00  0.00     0.004 C 
BRANCH  10  11
HETATM   11  C   UNL     1      30.969   5.380 -15.047  1.00  0.00     0.027 C 
BRANCH  11  12
HETATM   12  C   UNL     1      32.476   5.287 -14.992  1.00  0.00    -0.031 C 
HETATM   13  C   UNL     1      33.335   6.287 -14.708  1.00  0.00    -0.031 C 
BRANCH  13  14
HETATM   14  C   UNL     1      32.988   7.726 -14.390  1.00  0.00     0.027 C 
BRANCH  14  15
HETATM   15  C   UNL     1      32.662   7.901 -12.896  1.00  0.00     0.004 C 
BRANCH  15  16
HETATM   16  C   UNL     1      31.158   8.048 -12.585  1.00  0.00     0.000 C 
BRANCH  16  17
HETATM   17  C   UNL     1      30.646   7.017 -11.566  1.00  0.00     0.000 C 
BRANCH  17  18
HETATM   18  C   UNL     1      31.790   6.493 -10.687  1.00  0.00     0.000 C 
BRANCH  18  19
HETATM   19  C   UNL     1      31.321   5.321  -9.817  1.00  0.00    -0.000 C 
BRANCH  19  20
HETATM   20  C   UNL     1      32.024   5.329  -8.455  1.00  0.00    -0.005 C 
HETATM   21  C   UNL     1      33.018   6.482  -8.355  1.00  0.00     0.005 C 
ENDBRANCH  19  20
ENDBRANCH  18  19
ENDBRANCH  17  18
ENDBRANCH  16  17
ENDBRANCH  15  16
ENDBRANCH  14  15
ENDBRANCH  13  14
ENDBRANCH  11  12
ENDBRANCH  10  11
ENDBRANCH   9  10
ENDBRANCH   8   9
ENDBRANCH   7   8
ENDBRANCH   6   7
ENDBRANCH   5   6
ENDBRANCH   3   5
ENDBRANCH   1   3
TORSDOF 16
ENDMDL
MODEL 20
REMARK VINA RESULT:      -4.6     26.167     27.623
REMARK  16 active torsions:
REMARK  status: ('A' for Active; 'I' for Inactive)
REMARK    1  A    between atoms: O_1  and  C_20 
REMARK    2  A    between atoms: C_3  and  C_4 
REMARK    3  A    between atoms: C_3  and  C_5 
REMARK    4  A    between atoms: C_4  and  C_8 
REMARK    5  A    between atoms: C_5  and  C_11 
REMARK    6  A    between atoms: C_6  and  C_7 
REMARK    7  A    between atoms: C_6  and  C_9 
REMARK    8  A    between atoms: C_7  and  C_10 
REMARK    9  A    between atoms: C_8  and  C_12 
REMARK   10  A    between atoms: C_9  and  C_13 
REMARK   11  A    between atoms: C_10  and  C_14 
REMARK   12  A    between atoms: C_11  and  C_15 
REMARK   13  A    between atoms: C_12  and  C_16 
REMARK   14  A    between atoms: C_13  and  C_17 
REMARK   15  A    between atoms: C_14  and  C_18 
REMARK   16  A    between atoms: C_18  and  C_20 
ROOT
HETATM    1  O   UNL     1      30.105  10.747 -15.414  1.00  0.00    -0.776 OA
HETATM    2  H   UNL     1      30.117  10.313 -16.279  1.00  0.00     0.167 HD
ENDROOT
BRANCH   1   3
HETATM    3  C   UNL     1      29.538  10.161 -14.338  1.00  0.00     0.139 C 
HETATM    4  O   UNL     1      28.425  10.513 -13.971  1.00  0.00    -0.650 OA
BRANCH   3   5
HETATM    5  C   UNL     1      30.293   9.079 -13.612  1.00  0.00     0.110 C 
BRANCH   5   6
HETATM    6  C   UNL     1      31.706   9.509 -13.191  1.00  0.00     0.010 C 
BRANCH   6   7
HETATM    7  C   UNL     1      31.925   9.281 -11.690  1.00  0.00     0.001 C 
BRANCH   7   8
HETATM    8  C   UNL     1      30.593   9.027 -10.975  1.00  0.00     0.000 C 
BRANCH   8   9
HETATM    9  C   UNL     1      30.738   7.932  -9.912  1.00  0.00     0.000 C 
BRANCH   9  10
HETATM   10  C   UNL     1      32.164   7.899  -9.355  1.00  0.00     0.004 C 
BRANCH  10  11
HETATM   11  C   UNL     1      32.717   6.472  -9.318  1.00  0.00     0.027 C 
BRANCH  11  12
HETATM   12  C   UNL     1      33.644   6.262 -10.491  1.00  0.00    -0.031 C 
HETATM   13  C   UNL     1      33.375   5.573 -11.618  1.00  0.00    -0.031 C 
BRANCH  13  14
HETATM   14  C   UNL     1      32.090   4.848 -11.959  1.00  0.00     0.027 C 
BRANCH  14  15
HETATM   15  C   UNL     1      31.158   5.735 -12.803  1.00  0.00     0.004 C 
BRANCH  15  16
HETATM   16  C   UNL     1      30.884   5.200 -14.223  1.00  0.00     0.000 C 
BRANCH  16  17
HETATM   17  C   UNL     1      31.722   5.898 -15.307  1.00  0.00     0.000 C 
BRANCH  17  18
HETATM   18  C   UNL     1      32.455   4.875 -16.184  1.00  0.00     0.000 C 
BRANCH  18  19
HETATM   19  C   UNL     1      32.677   5.422 -17.599  1.00  0.00    -0.000 C 
BRANCH  19  20
HETATM   20  C   UNL     1      31.342   5.672 -18.310  1.00  0.00    -0.005 C 
HETATM   21  C   UNL     1      31.440   5.346 -19.797  1.00  0.00     0.005 C 
ENDBRANCH  19  20
ENDBRANCH  18  19
ENDBRANCH  17  18
ENDBRANCH  16  17
ENDBRANCH  15  16
ENDBRANCH  14  15
ENDBRANCH  13  14
ENDBRANCH  11  12
ENDBRANCH  10  11
ENDBRANCH   9  10
ENDBRANCH   8   9
ENDBRANCH   7   8
ENDBRANCH   6   7
ENDBRANCH   5   6
ENDBRANCH   3   5
ENDBRANCH   1   3
TORSDOF 16
ENDMDL
