MODEL 1
REMARK VINA RESULT:      -7.4      0.000      0.000
REMARK  15 active torsions:
REMARK  status: ('A' for Active; 'I' for Inactive)
REMARK    1  A    between atoms: O_1  and  C_22 
REMARK    2  A    between atoms: C_3  and  C_4 
REMARK    3  A    between atoms: C_3  and  C_5 
REMARK    4  A    between atoms: C_4  and  C_6 
REMARK    5  A    between atoms: C_5  and  C_7 
REMARK    6  A    between atoms: C_9  and  C_10 
REMARK    7  A    between atoms: C_9  and  C_13 
REMARK    8  A    between atoms: C_10  and  C_14 
REMARK    9  A    between atoms: C_11  and  C_12 
REMARK   10  A    between atoms: C_12  and  C_16 
REMARK   11  A    between atoms: C_13  and  C_22 
REMARK   12  A    between atoms: C_15  and  C_17 
REMARK   13  A    between atoms: C_15  and  C_20 
REMARK   14  A    between atoms: C_18  and  C_19 
REMARK   15  A    between atoms: C_18  and  C_21 
ROOT
HETATM    1  O   UNL     1       2.378  10.531 -26.005  1.00  0.00    -0.776 OA
HETATM    2  H   UNL     1       1.439  10.708 -25.859  1.00  0.00     0.167 HD
ENDROOT
BRANCH   1   3
HETATM    3  C   UNL     1       2.861   9.271 -26.030  1.00  0.00     0.139 C 
HETATM    4  O   UNL     1       2.600   8.534 -26.969  1.00  0.00    -0.650 OA
BRANCH   3   5
HETATM    5  C   UNL     1       3.710   8.773 -24.893  1.00  0.00     0.110 C 
BRANCH   5   6
HETATM    6  C   UNL     1       4.819   9.765 -24.514  1.00  0.00     0.014 C 
BRANCH   6   7
HETATM    7  C   UNL     1       5.073   9.819 -23.002  1.00  0.00     0.027 C 
BRANCH   7   8
HETATM    8  C   UNL     1       3.811  10.235 -22.290  1.00  0.00    -0.030 C 
HETATM    9  C   UNL     1       3.442   9.824 -21.062  1.00  0.00    -0.027 C 
BRANCH   9  10
HETATM   10  C   UNL     1       4.235   8.898 -20.174  1.00  0.00     0.053 C 
BRANCH  10  11
HETATM   11  C   UNL     1       5.277   9.657 -19.382  1.00  0.00    -0.027 C 
HETATM   12  C   UNL     1       5.137  10.210 -18.160  1.00  0.00    -0.027 C 
BRANCH  12  13
HETATM   13  C   UNL     1       3.908  10.184 -17.288  1.00  0.00     0.053 C 
BRANCH  13  14
HETATM   14  C   UNL     1       3.863   8.897 -16.498  1.00  0.00    -0.027 C 
HETATM   15  C   UNL     1       3.704   8.816 -15.161  1.00  0.00    -0.027 C 
BRANCH  15  16
HETATM   16  C   UNL     1       3.565  10.003 -14.244  1.00  0.00     0.053 C 
BRANCH  16  17
HETATM   17  C   UNL     1       4.754  10.135 -13.326  1.00  0.00    -0.027 C 
HETATM   18  C   UNL     1       4.769   9.709 -12.051  1.00  0.00    -0.030 C 
BRANCH  18  19
HETATM   19  C   UNL     1       3.606   9.052 -11.350  1.00  0.00     0.027 C 
BRANCH  19  20
HETATM   20  C   UNL     1       3.705   9.302  -9.842  1.00  0.00     0.004 C 
BRANCH  20  21
HETATM   21  C   UNL     1       5.106   9.787  -9.451  1.00  0.00    -0.000 C 
BRANCH  21  22
HETATM   22  C   UNL     1       5.254   9.856  -7.927  1.00  0.00    -0.005 C 
HETATM   23  C   UNL     1       3.892   9.904  -7.242  1.00  0.00     0.005 C 
ENDBRANCH  21  22
ENDBRANCH  20  21
ENDBRANCH  19  20
ENDBRANCH  18  19
ENDBRANCH  16  17
ENDBRANCH  15  16
ENDBRANCH  13  14
ENDBRANCH  12  13
ENDBRANCH  10  11
ENDBRANCH   9  10
ENDBRANCH   7   8
ENDBRANCH   6   7
ENDBRANCH   5   6
ENDBRANCH   3   5
ENDBRANCH   1   3
TORSDOF 15
ENDMDL
MODEL 2
REMARK VINA RESULT:      -6.2      2.052      2.745
REMARK  15 active torsions:
REMARK  status: ('A' for Active; 'I' for Inactive)
REMARK    1  A    between atoms: O_1  and  C_22 
REMARK    2  A    between atoms: C_3  and  C_4 
REMARK    3  A    between atoms: C_3  and  C_5 
REMARK    4  A    between atoms: C_4  and  C_6 
REMARK    5  A    between atoms: C_5  and  C_7 
REMARK    6  A    between atoms: C_9  and  C_10 
REMARK    7  A    between atoms: C_9  and  C_13 
REMARK    8  A    between atoms: C_10  and  C_14 
REMARK    9  A    between atoms: C_11  and  C_12 
REMARK   10  A    between atoms: C_12  and  C_16 
REMARK   11  A    between atoms: C_13  and  C_22 
REMARK   12  A    between atoms: C_15  and  C_17 
REMARK   13  A    between atoms: C_15  and  C_20 
REMARK   14  A    between atoms: C_18  and  C_19 
REMARK   15  A    between atoms: C_18  and  C_21 
ROOT
HETATM    1  O   UNL     1       6.587  11.374 -28.820  1.00  0.00    -0.776 OA
HETATM    2  H   UNL     1       5.908  12.057 -28.910  1.00  0.00     0.167 HD
ENDROOT
BRANCH   1   3
HETATM    3  C   UNL     1       6.288  10.143 -28.354  1.00  0.00     0.139 C 
HETATM    4  O   UNL     1       7.102   9.236 -28.449  1.00  0.00    -0.650 OA
BRANCH   3   5
HETATM    5  C   UNL     1       4.944   9.887 -27.727  1.00  0.00     0.110 C 
BRANCH   5   6
HETATM    6  C   UNL     1       5.042   8.999 -26.479  1.00  0.00     0.014 C 
BRANCH   6   7
HETATM    7  C   UNL     1       4.363   9.624 -25.253  1.00  0.00     0.027 C 
BRANCH   7   8
HETATM    8  C   UNL     1       5.376   9.811 -24.152  1.00  0.00    -0.030 C 
HETATM    9  C   UNL     1       5.100   9.805 -22.834  1.00  0.00    -0.027 C 
BRANCH   9  10
HETATM   10  C   UNL     1       3.738   9.587 -22.227  1.00  0.00     0.053 C 
BRANCH  10  11
HETATM   11  C   UNL     1       3.793   8.575 -21.104  1.00  0.00    -0.027 C 
HETATM   12  C   UNL     1       3.816   8.821 -19.778  1.00  0.00    -0.027 C 
BRANCH  12  13
HETATM   13  C   UNL     1       3.771  10.169 -19.105  1.00  0.00     0.053 C 
BRANCH  13  14
HETATM   14  C   UNL     1       4.889  10.280 -18.096  1.00  0.00    -0.027 C 
HETATM   15  C   UNL     1       4.757  10.077 -16.769  1.00  0.00    -0.027 C 
BRANCH  15  16
HETATM   16  C   UNL     1       3.463   9.722 -16.084  1.00  0.00     0.053 C 
BRANCH  16  17
HETATM   17  C   UNL     1       3.675   8.691 -15.003  1.00  0.00    -0.027 C 
HETATM   18  C   UNL     1       3.917   8.994 -13.716  1.00  0.00    -0.030 C 
BRANCH  18  19
HETATM   19  C   UNL     1       4.024  10.394 -13.167  1.00  0.00     0.027 C 
BRANCH  19  20
HETATM   20  C   UNL     1       3.506  10.423 -11.725  1.00  0.00     0.004 C 
BRANCH  20  21
HETATM   21  C   UNL     1       3.815   9.109 -10.998  1.00  0.00    -0.000 C 
BRANCH  21  22
HETATM   22  C   UNL     1       4.736   9.353  -9.797  1.00  0.00    -0.005 C 
HETATM   23  C   UNL     1       3.934   9.744  -8.559  1.00  0.00     0.005 C 
ENDBRANCH  21  22
ENDBRANCH  20  21
ENDBRANCH  19  20
ENDBRANCH  18  19
ENDBRANCH  16  17
ENDBRANCH  15  16
ENDBRANCH  13  14
ENDBRANCH  12  13
ENDBRANCH  10  11
ENDBRANCH   9  10
ENDBRANCH   7   8
ENDBRANCH   6   7
ENDBRANCH   5   6
ENDBRANCH   3   5
ENDBRANCH   1   3
TORSDOF 15
ENDMDL
MODEL 3
REMARK VINA RESULT:      -5.7     27.773     29.125
REMARK  15 active torsions:
REMARK  status: ('A' for Active; 'I' for Inactive)
REMARK    1  A    between atoms: O_1  and  C_22 
REMARK    2  A    between atoms: C_3  and  C_4 
REMARK    3  A    between atoms: C_3  and  C_5 
REMARK    4  A    between atoms: C_4  and  C_6 
REMARK    5  A    between atoms: C_5  and  C_7 
REMARK    6  A    between atoms: C_9  and  C_10 
REMARK    7  A    between atoms: C_9  and  C_13 
REMARK    8  A    between atoms: C_10  and  C_14 
REMARK    9  A    between atoms: C_11  and  C_12 
REMARK   10  A    between atoms: C_12  and  C_16 
REMARK   11  A    between atoms: C_13  and  C_22 
REMARK   12  A    between atoms: C_15  and  C_17 
REMARK   13  A    between atoms: C_15  and  C_20 
REMARK   14  A    between atoms: C_18  and  C_19 
REMARK   15  A    between atoms: C_18  and  C_21 
ROOT
HETATM    1  O   UNL     1      32.626   4.099 -11.602  1.00  0.00    -0.776 OA
HETATM    2  H   UNL     1      33.368   4.462 -12.106  1.00  0.00     0.167 HD
ENDROOT
BRANCH   1   3
HETATM    3  C   UNL     1      31.636   4.891 -11.140  1.00  0.00     0.139 C 
HETATM    4  O   UNL     1      31.637   5.257  -9.974  1.00  0.00    -0.650 OA
BRANCH   3   5
HETATM    5  C   UNL     1      30.524   5.312 -12.062  1.00  0.00     0.110 C 
BRANCH   5   6
HETATM    6  C   UNL     1      31.013   6.248 -13.177  1.00  0.00     0.014 C 
BRANCH   6   7
HETATM    7  C   UNL     1      31.146   5.537 -14.530  1.00  0.00     0.027 C 
BRANCH   7   8
HETATM    8  C   UNL     1      32.602   5.272 -14.823  1.00  0.00    -0.030 C 
HETATM    9  C   UNL     1      33.112   5.000 -16.039  1.00  0.00    -0.027 C 
BRANCH   9  10
HETATM   10  C   UNL     1      32.324   4.936 -17.323  1.00  0.00     0.053 C 
BRANCH  10  11
HETATM   11  C   UNL     1      32.643   6.112 -18.221  1.00  0.00    -0.027 C 
HETATM   12  C   UNL     1      32.054   7.325 -18.224  1.00  0.00    -0.027 C 
BRANCH  12  13
HETATM   13  C   UNL     1      30.948   7.800 -17.315  1.00  0.00     0.053 C 
BRANCH  13  14
HETATM   14  C   UNL     1      31.033   9.297 -17.136  1.00  0.00    -0.027 C 
HETATM   15  C   UNL     1      30.576   9.975 -16.063  1.00  0.00    -0.027 C 
BRANCH  15  16
HETATM   16  C   UNL     1      29.892   9.341 -14.881  1.00  0.00     0.053 C 
BRANCH  16  17
HETATM   17  C   UNL     1      29.805  10.294 -13.715  1.00  0.00    -0.027 C 
HETATM   18  C   UNL     1      30.777  10.449 -12.800  1.00  0.00    -0.030 C 
BRANCH  18  19
HETATM   19  C   UNL     1      32.081   9.692 -12.793  1.00  0.00     0.027 C 
BRANCH  19  20
HETATM   20  C   UNL     1      33.227  10.638 -13.168  1.00  0.00     0.004 C 
BRANCH  20  21
HETATM   21  C   UNL     1      33.893  10.210 -14.480  1.00  0.00    -0.000 C 
BRANCH  21  22
HETATM   22  C   UNL     1      33.915   8.682 -14.608  1.00  0.00    -0.005 C 
HETATM   23  C   UNL     1      34.769   8.241 -15.793  1.00  0.00     0.005 C 
ENDBRANCH  21  22
ENDBRANCH  20  21
ENDBRANCH  19  20
ENDBRANCH  18  19
ENDBRANCH  16  17
ENDBRANCH  15  16
ENDBRANCH  13  14
ENDBRANCH  12  13
ENDBRANCH  10  11
ENDBRANCH   9  10
ENDBRANCH   7   8
ENDBRANCH   6   7
ENDBRANCH   5   6
ENDBRANCH   3   5
ENDBRANCH   1   3
TORSDOF 15
ENDMDL
MODEL 4
REMARK VINA RESULT:      -5.6     27.303     28.483
REMARK  15 active torsions:
REMARK  status: ('A' for Active; 'I' for Inactive)
REMARK    1  A    between atoms: O_1  and  C_22 
REMARK    2  A    between atoms: C_3  and  C_4 
REMARK    3  A    between atoms: C_3  and  C_5 
REMARK    4  A    between atoms: C_4  and  C_6 
REMARK    5  A    between atoms: C_5  and  C_7 
REMARK    6  A    between atoms: C_9  and  C_10 
REMARK    7  A    between atoms: C_9  and  C_13 
REMARK    8  A    between atoms: C_10  and  C_14 
REMARK    9  A    between atoms: C_11  and  C_12 
REMARK   10  A    between atoms: C_12  and  C_16 
REMARK   11  A    between atoms: C_13  and  C_22 
REMARK   12  A    between atoms: C_15  and  C_17 
REMARK   13  A    between atoms: C_15  and  C_20 
REMARK   14  A    between atoms: C_18  and  C_19 
REMARK   15  A    between atoms: C_18  and  C_21 
ROOT
HETATM    1  O   UNL     1      28.803  11.827 -13.559  1.00  0.00    -0.776 OA
HETATM    2  H   UNL     1      29.611  12.193 -13.171  1.00  0.00     0.167 HD
ENDROOT
BRANCH   1   3
HETATM    3  C   UNL     1      28.832  10.715 -14.325  1.00  0.00     0.139 C 
HETATM    4  O   UNL     1      27.788  10.201 -14.697  1.00  0.00    -0.650 OA
BRANCH   3   5
HETATM    5  C   UNL     1      30.153  10.106 -14.708  1.00  0.00     0.110 C 
BRANCH   5   6
HETATM    6  C   UNL     1      29.988   8.888 -15.628  1.00  0.00     0.014 C 
BRANCH   6   7
HETATM    7  C   UNL     1      30.935   8.926 -16.835  1.00  0.00     0.027 C 
BRANCH   7   8
HETATM    8  C   UNL     1      31.226   7.520 -17.297  1.00  0.00    -0.030 C 
HETATM    9  C   UNL     1      32.196   6.727 -16.805  1.00  0.00    -0.027 C 
BRANCH   9  10
HETATM   10  C   UNL     1      33.145   7.093 -15.692  1.00  0.00     0.053 C 
BRANCH  10  11
HETATM   11  C   UNL     1      33.391   5.917 -14.772  1.00  0.00    -0.027 C 
HETATM   12  C   UNL     1      32.493   5.290 -13.985  1.00  0.00    -0.027 C 
BRANCH  12  13
HETATM   13  C   UNL     1      31.024   5.605 -13.854  1.00  0.00     0.053 C 
BRANCH  13  14
HETATM   14  C   UNL     1      30.826   6.752 -12.891  1.00  0.00    -0.027 C 
HETATM   15  C   UNL     1      30.694   6.627 -11.555  1.00  0.00    -0.027 C 
BRANCH  15  16
HETATM   16  C   UNL     1      30.709   5.315 -10.815  1.00  0.00     0.053 C 
BRANCH  16  17
HETATM   17  C   UNL     1      31.442   5.429  -9.502  1.00  0.00    -0.027 C 
HETATM   18  C   UNL     1      32.764   5.654  -9.399  1.00  0.00    -0.030 C 
BRANCH  18  19
HETATM   19  C   UNL     1      33.703   5.813 -10.568  1.00  0.00     0.027 C 
BRANCH  19  20
HETATM   20  C   UNL     1      34.359   7.197 -10.516  1.00  0.00     0.004 C 
BRANCH  20  21
HETATM   21  C   UNL     1      34.305   7.887 -11.883  1.00  0.00    -0.000 C 
BRANCH  21  22
HETATM   22  C   UNL     1      33.382   9.111 -11.842  1.00  0.00    -0.005 C 
HETATM   23  C   UNL     1      34.178  10.395 -11.631  1.00  0.00     0.005 C 
ENDBRANCH  21  22
ENDBRANCH  20  21
ENDBRANCH  19  20
ENDBRANCH  18  19
ENDBRANCH  16  17
ENDBRANCH  15  16
ENDBRANCH  13  14
ENDBRANCH  12  13
ENDBRANCH  10  11
ENDBRANCH   9  10
ENDBRANCH   7   8
ENDBRANCH   6   7
ENDBRANCH   5   6
ENDBRANCH   3   5
ENDBRANCH   1   3
TORSDOF 15
ENDMDL
MODEL 5
REMARK VINA RESULT:      -5.6     27.932     30.917
REMARK  15 active torsions:
REMARK  status: ('A' for Active; 'I' for Inactive)
REMARK    1  A    between atoms: O_1  and  C_22 
REMARK    2  A    between atoms: C_3  and  C_4 
REMARK    3  A    between atoms: C_3  and  C_5 
REMARK    4  A    between atoms: C_4  and  C_6 
REMARK    5  A    between atoms: C_5  and  C_7 
REMARK    6  A    between atoms: C_9  and  C_10 
REMARK    7  A    between atoms: C_9  and  C_13 
REMARK    8  A    between atoms: C_10  and  C_14 
REMARK    9  A    between atoms: C_11  and  C_12 
REMARK   10  A    between atoms: C_12  and  C_16 
REMARK   11  A    between atoms: C_13  and  C_22 
REMARK   12  A    between atoms: C_15  and  C_17 
REMARK   13  A    between atoms: C_15  and  C_20 
REMARK   14  A    between atoms: C_18  and  C_19 
REMARK   15  A    between atoms: C_18  and  C_21 
ROOT
HETATM    1  O   UNL     1      30.013   9.042  -3.908  1.00  0.00    -0.776 OA
HETATM    2  H   UNL     1      29.672   9.442  -3.096  1.00  0.00     0.167 HD
ENDROOT
BRANCH   1   3
HETATM    3  C   UNL     1      29.767   9.589  -5.118  1.00  0.00     0.139 C 
HETATM    4  O   UNL     1      28.642   9.976  -5.398  1.00  0.00    -0.650 OA
BRANCH   3   5
HETATM    5  C   UNL     1      30.879   9.709  -6.123  1.00  0.00     0.110 C 
BRANCH   5   6
HETATM    6  C   UNL     1      32.246   9.338  -5.530  1.00  0.00     0.014 C 
BRANCH   6   7
HETATM    7  C   UNL     1      33.121   8.547  -6.511  1.00  0.00     0.027 C 
BRANCH   7   8
HETATM    8  C   UNL     1      34.278   7.924  -5.772  1.00  0.00    -0.030 C 
HETATM    9  C   UNL     1      34.452   6.604  -5.572  1.00  0.00    -0.027 C 
BRANCH   9  10
HETATM   10  C   UNL     1      33.536   5.516  -6.073  1.00  0.00     0.053 C 
BRANCH  10  11
HETATM   11  C   UNL     1      32.424   5.238  -5.085  1.00  0.00    -0.027 C 
HETATM   12  C   UNL     1      31.110   5.505  -5.233  1.00  0.00    -0.027 C 
BRANCH  12  13
HETATM   13  C   UNL     1      30.440   6.129  -6.430  1.00  0.00     0.053 C 
BRANCH  13  14
HETATM   14  C   UNL     1      30.295   5.106  -7.532  1.00  0.00    -0.027 C 
HETATM   15  C   UNL     1      30.879   5.188  -8.746  1.00  0.00    -0.027 C 
BRANCH  15  16
HETATM   16  C   UNL     1      31.755   6.328  -9.196  1.00  0.00     0.053 C 
BRANCH  16  17
HETATM   17  C   UNL     1      33.153   5.858  -9.512  1.00  0.00    -0.027 C 
HETATM   18  C   UNL     1      33.712   5.935 -10.733  1.00  0.00    -0.030 C 
BRANCH  18  19
HETATM   19  C   UNL     1      33.028   6.485 -11.958  1.00  0.00     0.027 C 
BRANCH  19  20
HETATM   20  C   UNL     1      32.674   5.338 -12.910  1.00  0.00     0.004 C 
BRANCH  20  21
HETATM   21  C   UNL     1      31.439   5.676 -13.752  1.00  0.00    -0.000 C 
BRANCH  21  22
HETATM   22  C   UNL     1      30.834   7.017 -13.321  1.00  0.00    -0.005 C 
HETATM   23  C   UNL     1      30.858   8.025 -14.466  1.00  0.00     0.005 C 
ENDBRANCH  21  22
ENDBRANCH  20  21
ENDBRANCH  19  20
ENDBRANCH  18  19
ENDBRANCH  16  17
ENDBRANCH  15  16
ENDBRANCH  13  14
ENDBRANCH  12  13
ENDBRANCH  10  11
ENDBRANCH   9  10
ENDBRANCH   7   8
ENDBRANCH   6   7
ENDBRANCH   5   6
ENDBRANCH   3   5
ENDBRANCH   1   3
TORSDOF 15
ENDMDL
MODEL 6
REMARK VINA RESULT:      -5.6     27.340     28.790
REMARK  15 active torsions:
REMARK  status: ('A' for Active; 'I' for Inactive)
REMARK    1  A    between atoms: O_1  and  C_22 
REMARK    2  A    between atoms: C_3  and  C_4 
REMARK    3  A    between atoms: C_3  and  C_5 
REMARK    4  A    between atoms: C_4  and  C_6 
REMARK    5  A    between atoms: C_5  and  C_7 
REMARK    6  A    between atoms: C_9  and  C_10 
REMARK    7  A    between atoms: C_9  and  C_13 
REMARK    8  A    between atoms: C_10  and  C_14 
REMARK    9  A    between atoms: C_11  and  C_12 
REMARK   10  A    between atoms: C_12  and  C_16 
REMARK   11  A    between atoms: C_13  and  C_22 
REMARK   12  A    between atoms: C_15  and  C_17 
REMARK   13  A    between atoms: C_15  and  C_20 
REMARK   14  A    between atoms: C_18  and  C_19 
REMARK   15  A    between atoms: C_18  and  C_21 
ROOT
HETATM    1  O   UNL     1      28.946   9.445 -19.872  1.00  0.00    -0.776 OA
HETATM    2  H   UNL     1      28.179   8.958 -20.204  1.00  0.00     0.167 HD
ENDROOT
BRANCH   1   3
HETATM    3  C   UNL     1      28.803  10.558 -19.122  1.00  0.00     0.139 C 
HETATM    4  O   UNL     1      27.968  11.397 -19.425  1.00  0.00    -0.650 OA
BRANCH   3   5
HETATM    5  C   UNL     1      29.681  10.767 -17.919  1.00  0.00     0.110 C 
BRANCH   5   6
HETATM    6  C   UNL     1      31.155  10.967 -18.301  1.00  0.00     0.014 C 
BRANCH   6   7
HETATM    7  C   UNL     1      32.109  10.142 -17.428  1.00  0.00     0.027 C 
BRANCH   7   8
HETATM    8  C   UNL     1      33.473  10.093 -18.070  1.00  0.00    -0.030 C 
HETATM    9  C   UNL     1      34.459   9.240 -17.735  1.00  0.00    -0.027 C 
BRANCH   9  10
HETATM   10  C   UNL     1      34.368   8.170 -16.678  1.00  0.00     0.053 C 
BRANCH  10  11
HETATM   11  C   UNL     1      34.856   8.678 -15.339  1.00  0.00    -0.027 C 
HETATM   12  C   UNL     1      34.206   8.633 -14.158  1.00  0.00    -0.027 C 
BRANCH  12  13
HETATM   13  C   UNL     1      32.844   8.044 -13.893  1.00  0.00     0.053 C 
BRANCH  13  14
HETATM   14  C   UNL     1      32.983   6.727 -13.166  1.00  0.00    -0.027 C 
HETATM   15  C   UNL     1      32.771   5.514 -13.715  1.00  0.00    -0.027 C 
BRANCH  15  16
HETATM   16  C   UNL     1      32.344   5.285 -15.141  1.00  0.00     0.053 C 
BRANCH  16  17
HETATM   17  C   UNL     1      30.846   5.374 -15.291  1.00  0.00    -0.027 C 
HETATM   18  C   UNL     1      30.210   5.387 -16.476  1.00  0.00    -0.030 C 
BRANCH  18  19
HETATM   19  C   UNL     1      30.893   5.328 -17.819  1.00  0.00     0.027 C 
BRANCH  19  20
HETATM   20  C   UNL     1      30.911   6.724 -18.450  1.00  0.00     0.004 C 
BRANCH  20  21
HETATM   21  C   UNL     1      32.121   6.901 -19.373  1.00  0.00    -0.000 C 
BRANCH  21  22
HETATM   22  C   UNL     1      32.985   5.634 -19.389  1.00  0.00    -0.005 C 
HETATM   23  C   UNL     1      33.809   5.545 -20.670  1.00  0.00     0.005 C 
ENDBRANCH  21  22
ENDBRANCH  20  21
ENDBRANCH  19  20
ENDBRANCH  18  19
ENDBRANCH  16  17
ENDBRANCH  15  16
ENDBRANCH  13  14
ENDBRANCH  12  13
ENDBRANCH  10  11
ENDBRANCH   9  10
ENDBRANCH   7   8
ENDBRANCH   6   7
ENDBRANCH   5   6
ENDBRANCH   3   5
ENDBRANCH   1   3
TORSDOF 15
ENDMDL
MODEL 7
REMARK VINA RESULT:      -5.6     27.646     29.494
REMARK  15 active torsions:
REMARK  status: ('A' for Active; 'I' for Inactive)
REMARK    1  A    between atoms: O_1  and  C_22 
REMARK    2  A    between atoms: C_3  and  C_4 
REMARK    3  A    between atoms: C_3  and  C_5 
REMARK    4  A    between atoms: C_4  and  C_6 
REMARK    5  A    between atoms: C_5  and  C_7 
REMARK    6  A    between atoms: C_9  and  C_10 
REMARK    7  A    between atoms: C_9  and  C_13 
REMARK    8  A    between atoms: C_10  and  C_14 
REMARK    9  A    between atoms: C_11  and  C_12 
REMARK   10  A    between atoms: C_12  and  C_16 
REMARK   11  A    between atoms: C_13  and  C_22 
REMARK   12  A    between atoms: C_15  and  C_17 
REMARK   13  A    between atoms: C_15  and  C_20 
REMARK   14  A    between atoms: C_18  and  C_19 
REMARK   15  A    between atoms: C_18  and  C_21 
ROOT
HETATM    1  O   UNL     1      29.206  11.567 -12.446  1.00  0.00    -0.776 OA
HETATM    2  H   UNL     1      29.940  12.193 -12.373  1.00  0.00     0.167 HD
ENDROOT
BRANCH   1   3
HETATM    3  C   UNL     1      29.187  10.615 -13.403  1.00  0.00     0.139 C 
HETATM    4  O   UNL     1      28.242  10.541 -14.176  1.00  0.00    -0.650 OA
BRANCH   3   5
HETATM    5  C   UNL     1      30.325   9.638 -13.508  1.00  0.00     0.110 C 
BRANCH   5   6
HETATM    6  C   UNL     1      30.660   8.984 -12.160  1.00  0.00     0.014 C 
BRANCH   6   7
HETATM    7  C   UNL     1      30.815   7.461 -12.262  1.00  0.00     0.027 C 
BRANCH   7   8
HETATM    8  C   UNL     1      31.030   6.878 -10.888  1.00  0.00    -0.030 C 
HETATM    9  C   UNL     1      32.140   6.232 -10.484  1.00  0.00    -0.027 C 
BRANCH   9  10
HETATM   10  C   UNL     1      33.370   5.999 -11.324  1.00  0.00     0.053 C 
BRANCH  10  11
HETATM   11  C   UNL     1      34.513   6.884 -10.879  1.00  0.00    -0.027 C 
HETATM   12  C   UNL     1      34.768   8.151 -11.266  1.00  0.00    -0.027 C 
BRANCH  12  13
HETATM   13  C   UNL     1      33.956   8.989 -12.220  1.00  0.00     0.053 C 
BRANCH  13  14
HETATM   14  C   UNL     1      34.717   9.185 -13.511  1.00  0.00    -0.027 C 
HETATM   15  C   UNL     1      34.369   8.656 -14.702  1.00  0.00    -0.027 C 
BRANCH  15  16
HETATM   16  C   UNL     1      33.171   7.770 -14.925  1.00  0.00     0.053 C 
BRANCH  16  17
HETATM   17  C   UNL     1      33.557   6.312 -14.941  1.00  0.00    -0.027 C 
HETATM   18  C   UNL     1      32.679   5.305 -15.086  1.00  0.00    -0.030 C 
BRANCH  18  19
HETATM   19  C   UNL     1      31.189   5.480 -15.242  1.00  0.00     0.027 C 
BRANCH  19  20
HETATM   20  C   UNL     1      30.796   5.263 -16.707  1.00  0.00     0.004 C 
BRANCH  20  21
HETATM   21  C   UNL     1      30.910   6.564 -17.510  1.00  0.00    -0.000 C 
BRANCH  21  22
HETATM   22  C   UNL     1      31.233   6.272 -18.980  1.00  0.00    -0.005 C 
HETATM   23  C   UNL     1      32.402   5.300 -19.106  1.00  0.00     0.005 C 
ENDBRANCH  21  22
ENDBRANCH  20  21
ENDBRANCH  19  20
ENDBRANCH  18  19
ENDBRANCH  16  17
ENDBRANCH  15  16
ENDBRANCH  13  14
ENDBRANCH  12  13
ENDBRANCH  10  11
ENDBRANCH   9  10
ENDBRANCH   7   8
ENDBRANCH   6   7
ENDBRANCH   5   6
ENDBRANCH   3   5
ENDBRANCH   1   3
TORSDOF 15
ENDMDL
MODEL 8
REMARK VINA RESULT:      -5.5     26.510     29.120
REMARK  15 active torsions:
REMARK  status: ('A' for Active; 'I' for Inactive)
REMARK    1  A    between atoms: O_1  and  C_22 
REMARK    2  A    between atoms: C_3  and  C_4 
REMARK    3  A    between atoms: C_3  and  C_5 
REMARK    4  A    between atoms: C_4  and  C_6 
REMARK    5  A    between atoms: C_5  and  C_7 
REMARK    6  A    between atoms: C_9  and  C_10 
REMARK    7  A    between atoms: C_9  and  C_13 
REMARK    8  A    between atoms: C_10  and  C_14 
REMARK    9  A    between atoms: C_11  and  C_12 
REMARK   10  A    between atoms: C_12  and  C_16 
REMARK   11  A    between atoms: C_13  and  C_22 
REMARK   12  A    between atoms: C_15  and  C_17 
REMARK   13  A    between atoms: C_15  and  C_20 
REMARK   14  A    between atoms: C_18  and  C_19 
REMARK   15  A    between atoms: C_18  and  C_21 
ROOT
HETATM    1  O   UNL     1      27.858  10.243  -9.709  1.00  0.00    -0.776 OA
HETATM    2  H   UNL     1      27.125  10.212  -9.078  1.00  0.00     0.167 HD
ENDROOT
BRANCH   1   3
HETATM    3  C   UNL     1      28.651  11.331  -9.813  1.00  0.00     0.139 C 
HETATM    4  O   UNL     1      28.626  12.012 -10.828  1.00  0.00    -0.650 OA
BRANCH   3   5
HETATM    5  C   UNL     1      29.572  11.696  -8.681  1.00  0.00     0.110 C 
BRANCH   5   6
HETATM    6  C   UNL     1      29.880  10.499  -7.770  1.00  0.00     0.014 C 
BRANCH   6   7
HETATM    7  C   UNL     1      30.771   9.452  -8.451  1.00  0.00     0.027 C 
BRANCH   7   8
HETATM    8  C   UNL     1      31.958   9.145  -7.572  1.00  0.00    -0.030 C 
HETATM    9  C   UNL     1      31.920   8.407  -6.447  1.00  0.00    -0.027 C 
BRANCH   9  10
HETATM   10  C   UNL     1      30.693   7.738  -5.880  1.00  0.00     0.053 C 
BRANCH  10  11
HETATM   11  C   UNL     1      30.978   6.300  -5.504  1.00  0.00    -0.027 C 
HETATM   12  C   UNL     1      30.972   5.223  -6.315  1.00  0.00    -0.027 C 
BRANCH  12  13
HETATM   13  C   UNL     1      30.698   5.205  -7.797  1.00  0.00     0.053 C 
BRANCH  13  14
HETATM   14  C   UNL     1      32.000   5.221  -8.563  1.00  0.00    -0.027 C 
HETATM   15  C   UNL     1      32.176   5.779  -9.778  1.00  0.00    -0.027 C 
BRANCH  15  16
HETATM   16  C   UNL     1      31.091   6.462 -10.569  1.00  0.00     0.053 C 
BRANCH  16  17
HETATM   17  C   UNL     1      30.327   5.480 -11.422  1.00  0.00    -0.027 C 
HETATM   18  C   UNL     1      30.702   5.111 -12.659  1.00  0.00    -0.030 C 
BRANCH  18  19
HETATM   19  C   UNL     1      31.923   5.626 -13.377  1.00  0.00     0.027 C 
BRANCH  19  20
HETATM   20  C   UNL     1      31.503   6.646 -14.441  1.00  0.00     0.004 C 
BRANCH  20  21
HETATM   21  C   UNL     1      31.861   8.073 -14.013  1.00  0.00    -0.000 C 
BRANCH  21  22
HETATM   22  C   UNL     1      30.614   8.832 -13.543  1.00  0.00    -0.005 C 
HETATM   23  C   UNL     1      30.921   9.691 -12.320  1.00  0.00     0.005 C 
ENDBRANCH  21  22
ENDBRANCH  20  21
ENDBRANCH  19  20
ENDBRANCH  18  19
ENDBRANCH  16  17
ENDBRANCH  15  16
ENDBRANCH  13  14
ENDBRANCH  12  13
ENDBRANCH  10  11
ENDBRANCH   9  10
ENDBRANCH   7   8
ENDBRANCH   6   7
ENDBRANCH   5   6
ENDBRANCH   3   5
ENDBRANCH   1   3
TORSDOF 15
ENDMDL
MODEL 9
REMARK VINA RESULT:      -5.4     27.253     28.868
REMARK  15 active torsions:
REMARK  status: ('A' for Active; 'I' for Inactive)
REMARK    1  A    between atoms: O_1  and  C_22 
REMARK    2  A    between atoms: C_3  and  C_4 
REMARK    3  A    between atoms: C_3  and  C_5 
REMARK    4  A    between atoms: C_4  and  C_6 
REMARK    5  A    between atoms: C_5  and  C_7 
REMARK    6  A    between atoms: C_9  and  C_10 
REMARK    7  A    between atoms: C_9  and  C_13 
REMARK    8  A    between atoms: C_10  and  C_14 
REMARK    9  A    between atoms: C_11  and  C_12 
REMARK   10  A    between atoms: C_12  and  C_16 
REMARK   11  A    between atoms: C_13  and  C_22 
REMARK   12  A    between atoms: C_15  and  C_17 
REMARK   13  A    between atoms: C_15  and  C_20 
REMARK   14  A    between atoms: C_18  and  C_19 
REMARK   15  A    between atoms: C_18  and  C_21 
ROOT
HETATM    1  O   UNL     1      28.935  10.748 -16.271  1.00  0.00    -0.776 OA
HETATM    2  H   UNL     1      29.132  11.685 -16.412  1.00  0.00     0.167 HD
ENDROOT
BRANCH   1   3
HETATM    3  C   UNL     1      28.931  10.210 -15.033  1.00  0.00     0.139 C 
HETATM    4  O   UNL     1      28.070  10.532 -14.227  1.00  0.00    -0.650 OA
BRANCH   3   5
HETATM    5  C   UNL     1      29.996   9.221 -14.644  1.00  0.00     0.110 C 
BRANCH   5   6
HETATM    6  C   UNL     1      30.721   9.622 -13.352  1.00  0.00     0.014 C 
BRANCH   6   7
HETATM    7  C   UNL     1      31.518  10.925 -13.501  1.00  0.00     0.027 C 
BRANCH   7   8
HETATM    8  C   UNL     1      32.937  10.609 -13.902  1.00  0.00    -0.030 C 
HETATM    9  C   UNL     1      33.718   9.676 -13.326  1.00  0.00    -0.027 C 
BRANCH   9  10
HETATM   10  C   UNL     1      33.305   8.767 -12.196  1.00  0.00     0.053 C 
BRANCH  10  11
HETATM   11  C   UNL     1      34.454   8.521 -11.243  1.00  0.00    -0.027 C 
HETATM   12  C   UNL     1      34.753   7.374 -10.598  1.00  0.00    -0.027 C 
BRANCH  12  13
HETATM   13  C   UNL     1      34.020   6.060 -10.695  1.00  0.00     0.053 C 
BRANCH  13  14
HETATM   14  C   UNL     1      33.033   5.934  -9.559  1.00  0.00    -0.027 C 
HETATM   15  C   UNL     1      31.729   6.270  -9.627  1.00  0.00    -0.027 C 
BRANCH  15  16
HETATM   16  C   UNL     1      31.056   6.840 -10.848  1.00  0.00     0.053 C 
BRANCH  16  17
HETATM   17  C   UNL     1      30.238   5.797 -11.567  1.00  0.00    -0.027 C 
HETATM   18  C   UNL     1      30.681   5.095 -12.625  1.00  0.00    -0.030 C 
BRANCH  18  19
HETATM   19  C   UNL     1      32.043   5.252 -13.252  1.00  0.00     0.027 C 
BRANCH  19  20
HETATM   20  C   UNL     1      31.945   6.179 -14.468  1.00  0.00     0.004 C 
BRANCH  20  21
HETATM   21  C   UNL     1      30.898   5.676 -15.467  1.00  0.00    -0.000 C 
BRANCH  21  22
HETATM   22  C   UNL     1      31.569   4.990 -16.663  1.00  0.00    -0.005 C 
HETATM   23  C   UNL     1      30.894   5.384 -17.974  1.00  0.00     0.005 C 
ENDBRANCH  21  22
ENDBRANCH  20  21
ENDBRANCH  19  20
ENDBRANCH  18  19
ENDBRANCH  16  17
ENDBRANCH  15  16
ENDBRANCH  13  14
ENDBRANCH  12  13
ENDBRANCH  10  11
ENDBRANCH   9  10
ENDBRANCH   7   8
ENDBRANCH   6   7
ENDBRANCH   5   6
ENDBRANCH   3   5
ENDBRANCH   1   3
TORSDOF 15
ENDMDL
MODEL 10
REMARK VINA RESULT:      -5.4     27.451     29.718
REMARK  15 active torsions:
REMARK  status: ('A' for Active; 'I' for Inactive)
REMARK    1  A    between atoms: O_1  and  C_22 
REMARK    2  A    between atoms: C_3  and  C_4 
REMARK    3  A    between atoms: C_3  and  C_5 
REMARK    4  A    between atoms: C_4  and  C_6 
REMARK    5  A    between atoms: C_5  and  C_7 
REMARK    6  A    between atoms: C_9  and  C_10 
REMARK    7  A    between atoms: C_9  and  C_13 
REMARK    8  A    between atoms: C_10  and  C_14 
REMARK    9  A    between atoms: C_11  and  C_12 
REMARK   10  A    between atoms: C_12  and  C_16 
REMARK   11  A    between atoms: C_13  and  C_22 
REMARK   12  A    between atoms: C_15  and  C_17 
REMARK   13  A    between atoms: C_15  and  C_20 
REMARK   14  A    between atoms: C_18  and  C_19 
REMARK   15  A    between atoms: C_18  and  C_21 
ROOT
HETATM    1  O   UNL     1      28.056  12.375  -9.850  1.00  0.00    -0.776 OA
HETATM    2  H   UNL     1      27.892  13.013  -9.141  1.00  0.00     0.167 HD
ENDROOT
BRANCH   1   3
HETATM    3  C   UNL     1      28.622  11.175  -9.599  1.00  0.00     0.139 C 
HETATM    4  O   UNL     1      27.963  10.152  -9.708  1.00  0.00    -0.650 OA
BRANCH   3   5
HETATM    5  C   UNL     1      30.063  11.103  -9.175  1.00  0.00     0.110 C 
BRANCH   5   6
HETATM    6  C   UNL     1      30.860  10.070  -9.985  1.00  0.00     0.014 C 
BRANCH   6   7
HETATM    7  C   UNL     1      31.051   8.748  -9.231  1.00  0.00     0.027 C 
BRANCH   7   8
HETATM    8  C   UNL     1      31.296   9.027  -7.769  1.00  0.00    -0.030 C 
HETATM    9  C   UNL     1      32.254   8.451  -7.018  1.00  0.00    -0.027 C 
BRANCH   9  10
HETATM   10  C   UNL     1      33.264   7.445  -7.510  1.00  0.00     0.053 C 
BRANCH  10  11
HETATM   11  C   UNL     1      32.782   6.029  -7.283  1.00  0.00    -0.027 C 
HETATM   12  C   UNL     1      32.360   5.147  -8.212  1.00  0.00    -0.027 C 
BRANCH  12  13
HETATM   13  C   UNL     1      32.289   5.363  -9.702  1.00  0.00     0.053 C 
BRANCH  13  14
HETATM   14  C   UNL     1      30.849   5.349 -10.158  1.00  0.00    -0.027 C 
HETATM   15  C   UNL     1      30.445   5.319 -11.445  1.00  0.00    -0.027 C 
BRANCH  15  16
HETATM   16  C   UNL     1      31.373   5.313 -12.631  1.00  0.00     0.053 C 
BRANCH  16  17
HETATM   17  C   UNL     1      31.131   6.501 -13.529  1.00  0.00    -0.027 C 
HETATM   18  C   UNL     1      31.782   7.672 -13.416  1.00  0.00    -0.030 C 
BRANCH  18  19
HETATM   19  C   UNL     1      32.834   7.975 -12.379  1.00  0.00     0.027 C 
BRANCH  19  20
HETATM   20  C   UNL     1      33.489   9.324 -12.690  1.00  0.00     0.004 C 
BRANCH  20  21
HETATM   21  C   UNL     1      34.847   9.455 -11.992  1.00  0.00    -0.000 C 
BRANCH  21  22
HETATM   22  C   UNL     1      34.793   8.867 -10.577  1.00  0.00    -0.005 C 
HETATM   23  C   UNL     1      34.870   9.966  -9.521  1.00  0.00     0.005 C 
ENDBRANCH  21  22
ENDBRANCH  20  21
ENDBRANCH  19  20
ENDBRANCH  18  19
ENDBRANCH  16  17
ENDBRANCH  15  16
ENDBRANCH  13  14
ENDBRANCH  12  13
ENDBRANCH  10  11
ENDBRANCH   9  10
ENDBRANCH   7   8
ENDBRANCH   6   7
ENDBRANCH   5   6
ENDBRANCH   3   5
ENDBRANCH   1   3
TORSDOF 15
ENDMDL
MODEL 11
REMARK VINA RESULT:      -5.4     26.877     29.093
REMARK  15 active torsions:
REMARK  status: ('A' for Active; 'I' for Inactive)
REMARK    1  A    between atoms: O_1  and  C_22 
REMARK    2  A    between atoms: C_3  and  C_4 
REMARK    3  A    between atoms: C_3  and  C_5 
REMARK    4  A    between atoms: C_4  and  C_6 
REMARK    5  A    between atoms: C_5  and  C_7 
REMARK    6  A    between atoms: C_9  and  C_10 
REMARK    7  A    between atoms: C_9  and  C_13 
REMARK    8  A    between atoms: C_10  and  C_14 
REMARK    9  A    between atoms: C_11  and  C_12 
REMARK   10  A    between atoms: C_12  and  C_16 
REMARK   11  A    between atoms: C_13  and  C_22 
REMARK   12  A    between atoms: C_15  and  C_17 
REMARK   13  A    between atoms: C_15  and  C_20 
REMARK   14  A    between atoms: C_18  and  C_19 
REMARK   15  A    between atoms: C_18  and  C_21 
ROOT
HETATM    1  O   UNL     1      28.800  11.957 -13.053  1.00  0.00    -0.776 OA
HETATM    2  H   UNL     1      28.250  12.486 -13.648  1.00  0.00     0.167 HD
ENDROOT
BRANCH   1   3
HETATM    3  C   UNL     1      29.128  12.399 -11.820  1.00  0.00     0.139 C 
HETATM    4  O   UNL     1      28.704  13.474 -11.422  1.00  0.00    -0.650 OA
BRANCH   3   5
HETATM    5  C   UNL     1      30.025  11.570 -10.943  1.00  0.00     0.110 C 
BRANCH   5   6
HETATM    6  C   UNL     1      29.244  10.539 -10.117  1.00  0.00     0.014 C 
BRANCH   6   7
HETATM    7  C   UNL     1      29.950  10.174  -8.805  1.00  0.00     0.027 C 
BRANCH   7   8
HETATM    8  C   UNL     1      31.384   9.801  -9.086  1.00  0.00    -0.030 C 
HETATM    9  C   UNL     1      31.826   8.555  -9.344  1.00  0.00    -0.027 C 
BRANCH   9  10
HETATM   10  C   UNL     1      30.964   7.320  -9.419  1.00  0.00     0.053 C 
BRANCH  10  11
HETATM   11  C   UNL     1      31.593   6.166  -8.670  1.00  0.00    -0.027 C 
HETATM   12  C   UNL     1      32.611   5.381  -9.077  1.00  0.00    -0.027 C 
BRANCH  12  13
HETATM   13  C   UNL     1      33.376   5.485 -10.372  1.00  0.00     0.053 C 
BRANCH  13  14
HETATM   14  C   UNL     1      32.575   4.871 -11.496  1.00  0.00    -0.027 C 
HETATM   15  C   UNL     1      32.172   5.524 -12.605  1.00  0.00    -0.027 C 
BRANCH  15  16
HETATM   16  C   UNL     1      32.447   6.978 -12.887  1.00  0.00     0.053 C 
BRANCH  16  17
HETATM   17  C   UNL     1      31.168   7.768 -13.009  1.00  0.00    -0.027 C 
HETATM   18  C   UNL     1      30.608   8.113 -14.182  1.00  0.00    -0.030 C 
BRANCH  18  19
HETATM   19  C   UNL     1      31.174   7.775 -15.537  1.00  0.00     0.027 C 
BRANCH  19  20
HETATM   20  C   UNL     1      30.425   6.574 -16.123  1.00  0.00     0.004 C 
BRANCH  20  21
HETATM   21  C   UNL     1      31.361   5.377 -16.319  1.00  0.00    -0.000 C 
BRANCH  21  22
HETATM   22  C   UNL     1      32.739   5.836 -16.811  1.00  0.00    -0.005 C 
HETATM   23  C   UNL     1      33.837   5.428 -15.832  1.00  0.00     0.005 C 
ENDBRANCH  21  22
ENDBRANCH  20  21
ENDBRANCH  19  20
ENDBRANCH  18  19
ENDBRANCH  16  17
ENDBRANCH  15  16
ENDBRANCH  13  14
ENDBRANCH  12  13
ENDBRANCH  10  11
ENDBRANCH   9  10
ENDBRANCH   7   8
ENDBRANCH   6   7
ENDBRANCH   5   6
ENDBRANCH   3   5
ENDBRANCH   1   3
TORSDOF 15
ENDMDL
MODEL 12
REMARK VINA RESULT:      -5.3     28.039     30.189
REMARK  15 active torsions:
REMARK  status: ('A' for Active; 'I' for Inactive)
REMARK    1  A    between atoms: O_1  and  C_22 
REMARK    2  A    between atoms: C_3  and  C_4 
REMARK    3  A    between atoms: C_3  and  C_5 
REMARK    4  A    between atoms: C_4  and  C_6 
REMARK    5  A    between atoms: C_5  and  C_7 
REMARK    6  A    between atoms: C_9  and  C_10 
REMARK    7  A    between atoms: C_9  and  C_13 
REMARK    8  A    between atoms: C_10  and  C_14 
REMARK    9  A    between atoms: C_11  and  C_12 
REMARK   10  A    between atoms: C_12  and  C_16 
REMARK   11  A    between atoms: C_13  and  C_22 
REMARK   12  A    between atoms: C_15  and  C_17 
REMARK   13  A    between atoms: C_15  and  C_20 
REMARK   14  A    between atoms: C_18  and  C_19 
REMARK   15  A    between atoms: C_18  and  C_21 
ROOT
HETATM    1  O   UNL     1      31.741   4.538  -6.761  1.00  0.00    -0.776 OA
HETATM    2  H   UNL     1      31.234   3.981  -6.154  1.00  0.00     0.167 HD
ENDROOT
BRANCH   1   3
HETATM    3  C   UNL     1      31.151   5.156  -7.807  1.00  0.00     0.139 C 
HETATM    4  O   UNL     1      29.974   4.944  -8.059  1.00  0.00    -0.650 OA
BRANCH   3   5
HETATM    5  C   UNL     1      31.950   6.097  -8.666  1.00  0.00     0.110 C 
BRANCH   5   6
HETATM    6  C   UNL     1      32.279   5.495 -10.040  1.00  0.00     0.014 C 
BRANCH   6   7
HETATM    7  C   UNL     1      31.357   6.017 -11.150  1.00  0.00     0.027 C 
BRANCH   7   8
HETATM    8  C   UNL     1      30.814   7.370 -10.765  1.00  0.00    -0.030 C 
HETATM    9  C   UNL     1      30.881   8.479 -11.526  1.00  0.00    -0.027 C 
BRANCH   9  10
HETATM   10  C   UNL     1      31.488   8.558 -12.904  1.00  0.00     0.053 C 
BRANCH  10  11
HETATM   11  C   UNL     1      32.998   8.600 -12.836  1.00  0.00    -0.027 C 
HETATM   12  C   UNL     1      33.874   8.010 -13.676  1.00  0.00    -0.027 C 
BRANCH  12  13
HETATM   13  C   UNL     1      33.548   7.184 -14.894  1.00  0.00     0.053 C 
BRANCH  13  14
HETATM   14  C   UNL     1      33.163   5.783 -14.480  1.00  0.00    -0.027 C 
HETATM   15  C   UNL     1      31.975   5.199 -14.737  1.00  0.00    -0.027 C 
BRANCH  15  16
HETATM   16  C   UNL     1      30.836   5.865 -15.464  1.00  0.00     0.053 C 
BRANCH  16  17
HETATM   17  C   UNL     1      30.433   5.085 -16.691  1.00  0.00    -0.027 C 
HETATM   18  C   UNL     1      30.795   5.416 -17.943  1.00  0.00    -0.030 C 
BRANCH  18  19
HETATM   19  C   UNL     1      31.640   6.611 -18.306  1.00  0.00     0.027 C 
BRANCH  19  20
HETATM   20  C   UNL     1      32.900   6.145 -19.043  1.00  0.00     0.004 C 
BRANCH  20  21
HETATM   21  C   UNL     1      33.711   7.336 -19.563  1.00  0.00    -0.000 C 
BRANCH  21  22
HETATM   22  C   UNL     1      34.109   8.271 -18.414  1.00  0.00    -0.005 C 
HETATM   23  C   UNL     1      33.647   9.700 -18.681  1.00  0.00     0.005 C 
ENDBRANCH  21  22
ENDBRANCH  20  21
ENDBRANCH  19  20
ENDBRANCH  18  19
ENDBRANCH  16  17
ENDBRANCH  15  16
ENDBRANCH  13  14
ENDBRANCH  12  13
ENDBRANCH  10  11
ENDBRANCH   9  10
ENDBRANCH   7   8
ENDBRANCH   6   7
ENDBRANCH   5   6
ENDBRANCH   3   5
ENDBRANCH   1   3
TORSDOF 15
ENDMDL
MODEL 13
REMARK VINA RESULT:      -5.3     27.979     30.270
REMARK  15 active torsions:
REMARK  status: ('A' for Active; 'I' for Inactive)
REMARK    1  A    between atoms: O_1  and  C_22 
REMARK    2  A    between atoms: C_3  and  C_4 
REMARK    3  A    between atoms: C_3  and  C_5 
REMARK    4  A    between atoms: C_4  and  C_6 
REMARK    5  A    between atoms: C_5  and  C_7 
REMARK    6  A    between atoms: C_9  and  C_10 
REMARK    7  A    between atoms: C_9  and  C_13 
REMARK    8  A    between atoms: C_10  and  C_14 
REMARK    9  A    between atoms: C_11  and  C_12 
REMARK   10  A    between atoms: C_12  and  C_16 
REMARK   11  A    between atoms: C_13  and  C_22 
REMARK   12  A    between atoms: C_15  and  C_17 
REMARK   13  A    between atoms: C_15  and  C_20 
REMARK   14  A    between atoms: C_18  and  C_19 
REMARK   15  A    between atoms: C_18  and  C_21 
ROOT
HETATM    1  O   UNL     1      29.727  11.111  -8.698  1.00  0.00    -0.776 OA
HETATM    2  H   UNL     1      30.501  11.677  -8.826  1.00  0.00     0.167 HD
ENDROOT
BRANCH   1   3
HETATM    3  C   UNL     1      29.455  10.091  -9.540  1.00  0.00     0.139 C 
HETATM    4  O   UNL     1      28.432  10.106 -10.209  1.00  0.00    -0.650 OA
BRANCH   3   5
HETATM    5  C   UNL     1      30.408   8.933  -9.644  1.00  0.00     0.110 C 
BRANCH   5   6
HETATM    6  C   UNL     1      31.088   8.614  -8.305  1.00  0.00     0.014 C 
BRANCH   6   7
HETATM    7  C   UNL     1      30.683   7.243  -7.748  1.00  0.00     0.027 C 
BRANCH   7   8
HETATM    8  C   UNL     1      31.919   6.448  -7.407  1.00  0.00    -0.030 C 
HETATM    9  C   UNL     1      32.541   5.586  -8.233  1.00  0.00    -0.027 C 
BRANCH   9  10
HETATM   10  C   UNL     1      32.127   5.282  -9.651  1.00  0.00     0.053 C 
BRANCH  10  11
HETATM   11  C   UNL     1      33.317   5.299 -10.585  1.00  0.00    -0.027 C 
HETATM   12  C   UNL     1      34.057   6.366 -10.952  1.00  0.00    -0.027 C 
BRANCH  12  13
HETATM   13  C   UNL     1      33.880   7.792 -10.498  1.00  0.00     0.053 C 
BRANCH  13  14
HETATM   14  C   UNL     1      35.064   8.624 -10.933  1.00  0.00    -0.027 C 
HETATM   15  C   UNL     1      35.102   9.398 -12.037  1.00  0.00    -0.027 C 
BRANCH  15  16
HETATM   16  C   UNL     1      33.969   9.539 -13.020  1.00  0.00     0.053 C 
BRANCH  16  17
HETATM   17  C   UNL     1      34.220   8.736 -14.271  1.00  0.00    -0.027 C 
HETATM   18  C   UNL     1      33.466   7.692 -14.656  1.00  0.00    -0.030 C 
BRANCH  18  19
HETATM   19  C   UNL     1      32.274   7.165 -13.896  1.00  0.00     0.027 C 
BRANCH  19  20
HETATM   20  C   UNL     1      32.090   5.674 -14.196  1.00  0.00     0.004 C 
BRANCH  20  21
HETATM   21  C   UNL     1      31.046   5.455 -15.297  1.00  0.00    -0.000 C 
BRANCH  21  22
HETATM   22  C   UNL     1      31.702   4.905 -16.570  1.00  0.00    -0.005 C 
HETATM   23  C   UNL     1      30.991   5.416 -17.819  1.00  0.00     0.005 C 
ENDBRANCH  21  22
ENDBRANCH  20  21
ENDBRANCH  19  20
ENDBRANCH  18  19
ENDBRANCH  16  17
ENDBRANCH  15  16
ENDBRANCH  13  14
ENDBRANCH  12  13
ENDBRANCH  10  11
ENDBRANCH   9  10
ENDBRANCH   7   8
ENDBRANCH   6   7
ENDBRANCH   5   6
ENDBRANCH   3   5
ENDBRANCH   1   3
TORSDOF 15
ENDMDL
MODEL 14
REMARK VINA RESULT:      -5.3     27.064     28.008
REMARK  15 active torsions:
REMARK  status: ('A' for Active; 'I' for Inactive)
REMARK    1  A    between atoms: O_1  and  C_22 
REMARK    2  A    between atoms: C_3  and  C_4 
REMARK    3  A    between atoms: C_3  and  C_5 
REMARK    4  A    between atoms: C_4  and  C_6 
REMARK    5  A    between atoms: C_5  and  C_7 
REMARK    6  A    between atoms: C_9  and  C_10 
REMARK    7  A    between atoms: C_9  and  C_13 
REMARK    8  A    between atoms: C_10  and  C_14 
REMARK    9  A    between atoms: C_11  and  C_12 
REMARK   10  A    between atoms: C_12  and  C_16 
REMARK   11  A    between atoms: C_13  and  C_22 
REMARK   12  A    between atoms: C_15  and  C_17 
REMARK   13  A    between atoms: C_15  and  C_20 
REMARK   14  A    between atoms: C_18  and  C_19 
REMARK   15  A    between atoms: C_18  and  C_21 
ROOT
HETATM    1  O   UNL     1      29.947  11.303 -19.296  1.00  0.00    -0.776 OA
HETATM    2  H   UNL     1      30.537  11.360 -18.531  1.00  0.00     0.167 HD
ENDROOT
BRANCH   1   3
HETATM    3  C   UNL     1      29.876  10.183 -20.047  1.00  0.00     0.139 C 
HETATM    4  O   UNL     1      28.787   9.727 -20.365  1.00  0.00    -0.650 OA
BRANCH   3   5
HETATM    5  C   UNL     1      31.139   9.494 -20.482  1.00  0.00     0.110 C 
BRANCH   5   6
HETATM    6  C   UNL     1      30.893   8.478 -21.607  1.00  0.00     0.014 C 
BRANCH   6   7
HETATM    7  C   UNL     1      30.735   7.044 -21.085  1.00  0.00     0.027 C 
BRANCH   7   8
HETATM    8  C   UNL     1      31.625   6.116 -21.871  1.00  0.00    -0.030 C 
HETATM    9  C   UNL     1      32.765   5.562 -21.416  1.00  0.00    -0.027 C 
BRANCH   9  10
HETATM   10  C   UNL     1      33.338   5.752 -20.035  1.00  0.00     0.053 C 
BRANCH  10  11
HETATM   11  C   UNL     1      33.958   7.124 -19.882  1.00  0.00    -0.027 C 
HETATM   12  C   UNL     1      33.890   7.941 -18.811  1.00  0.00    -0.027 C 
BRANCH  12  13
HETATM   13  C   UNL     1      33.193   7.666 -17.503  1.00  0.00     0.053 C 
BRANCH  13  14
HETATM   14  C   UNL     1      31.704   7.546 -17.727  1.00  0.00    -0.027 C 
HETATM   15  C   UNL     1      30.935   6.529 -17.287  1.00  0.00    -0.027 C 
BRANCH  15  16
HETATM   16  C   UNL     1      31.449   5.341 -16.517  1.00  0.00     0.053 C 
BRANCH  16  17
HETATM   17  C   UNL     1      30.797   5.237 -15.161  1.00  0.00    -0.027 C 
HETATM   18  C   UNL     1      31.443   5.439 -14.000  1.00  0.00    -0.030 C 
BRANCH  18  19
HETATM   19  C   UNL     1      32.906   5.785 -13.879  1.00  0.00     0.027 C 
BRANCH  19  20
HETATM   20  C   UNL     1      33.062   7.097 -13.104  1.00  0.00     0.004 C 
BRANCH  20  21
HETATM   21  C   UNL     1      32.649   8.299 -13.960  1.00  0.00    -0.000 C 
BRANCH  21  22
HETATM   22  C   UNL     1      31.340   8.911 -13.447  1.00  0.00    -0.005 C 
HETATM   23  C   UNL     1      30.299   8.998 -14.558  1.00  0.00     0.005 C 
ENDBRANCH  21  22
ENDBRANCH  20  21
ENDBRANCH  19  20
ENDBRANCH  18  19
ENDBRANCH  16  17
ENDBRANCH  15  16
ENDBRANCH  13  14
ENDBRANCH  12  13
ENDBRANCH  10  11
ENDBRANCH   9  10
ENDBRANCH   7   8
ENDBRANCH   6   7
ENDBRANCH   5   6
ENDBRANCH   3   5
ENDBRANCH   1   3
TORSDOF 15
ENDMDL
MODEL 15
REMARK VINA RESULT:      -5.3     27.264     28.815
REMARK  15 active torsions:
REMARK  status: ('A' for Active; 'I' for Inactive)
REMARK    1  A    between atoms: O_1  and  C_22 
REMARK    2  A    between atoms: C_3  and  C_4 
REMARK    3  A    between atoms: C_3  and  C_5 
REMARK    4  A    between atoms: C_4  and  C_6 
REMARK    5  A    between atoms: C_5  and  C_7 
REMARK    6  A    between atoms: C_9  and  C_10 
REMARK    7  A    between atoms: C_9  and  C_13 
REMARK    8  A    between atoms: C_10  and  C_14 
REMARK    9  A    between atoms: C_11  and  C_12 
REMARK   10  A    between atoms: C_12  and  C_16 
REMARK   11  A    between atoms: C_13  and  C_22 
REMARK   12  A    between atoms: C_15  and  C_17 
REMARK   13  A    between atoms: C_15  and  C_20 
REMARK   14  A    between atoms: C_18  and  C_19 
REMARK   15  A    between atoms: C_18  and  C_21 
ROOT
HETATM    1  O   UNL     1      27.944  12.661  -9.929  1.00  0.00    -0.776 OA
HETATM    2  H   UNL     1      27.491  13.060  -9.173  1.00  0.00     0.167 HD
ENDROOT
BRANCH   1   3
HETATM    3  C   UNL     1      28.573  11.471  -9.824  1.00  0.00     0.139 C 
HETATM    4  O   UNL     1      27.995  10.513  -9.332  1.00  0.00    -0.650 OA
BRANCH   3   5
HETATM    5  C   UNL     1      29.992  11.331 -10.303  1.00  0.00     0.110 C 
BRANCH   5   6
HETATM    6  C   UNL     1      30.236   9.997 -11.024  1.00  0.00     0.014 C 
BRANCH   6   7
HETATM    7  C   UNL     1      31.284  10.111 -12.139  1.00  0.00     0.027 C 
BRANCH   7   8
HETATM    8  C   UNL     1      30.623  10.577 -13.412  1.00  0.00    -0.030 C 
HETATM    9  C   UNL     1      30.219   9.776 -14.416  1.00  0.00    -0.027 C 
BRANCH   9  10
HETATM   10  C   UNL     1      30.333   8.272 -14.434  1.00  0.00     0.053 C 
BRANCH  10  11
HETATM   11  C   UNL     1      30.769   7.772 -15.793  1.00  0.00    -0.027 C 
HETATM   12  C   UNL     1      31.901   7.104 -16.097  1.00  0.00    -0.027 C 
BRANCH  12  13
HETATM   13  C   UNL     1      32.989   6.681 -15.143  1.00  0.00     0.053 C 
BRANCH  13  14
HETATM   14  C   UNL     1      33.879   7.858 -14.820  1.00  0.00    -0.027 C 
HETATM   15  C   UNL     1      34.204   8.263 -13.576  1.00  0.00    -0.027 C 
BRANCH  15  16
HETATM   16  C   UNL     1      33.714   7.611 -12.310  1.00  0.00     0.053 C 
BRANCH  16  17
HETATM   17  C   UNL     1      34.635   7.893 -11.150  1.00  0.00    -0.027 C 
HETATM   18  C   UNL     1      34.230   7.956  -9.869  1.00  0.00    -0.030 C 
BRANCH  18  19
HETATM   19  C   UNL     1      32.807   7.768  -9.406  1.00  0.00     0.027 C 
BRANCH  19  20
HETATM   20  C   UNL     1      32.608   6.327  -8.926  1.00  0.00     0.004 C 
BRANCH  20  21
HETATM   21  C   UNL     1      31.270   5.760  -9.413  1.00  0.00    -0.000 C 
BRANCH  21  22
HETATM   22  C   UNL     1      31.390   5.229 -10.846  1.00  0.00    -0.005 C 
HETATM   23  C   UNL     1      30.287   5.794 -11.737  1.00  0.00     0.005 C 
ENDBRANCH  21  22
ENDBRANCH  20  21
ENDBRANCH  19  20
ENDBRANCH  18  19
ENDBRANCH  16  17
ENDBRANCH  15  16
ENDBRANCH  13  14
ENDBRANCH  12  13
ENDBRANCH  10  11
ENDBRANCH   9  10
ENDBRANCH   7   8
ENDBRANCH   6   7
ENDBRANCH   5   6
ENDBRANCH   3   5
ENDBRANCH   1   3
TORSDOF 15
ENDMDL
MODEL 16
REMARK VINA RESULT:      -5.3     27.008     28.840
REMARK  15 active torsions:
REMARK  status: ('A' for Active; 'I' for Inactive)
REMARK    1  A    between atoms: O_1  and  C_22 
REMARK    2  A    between atoms: C_3  and  C_4 
REMARK    3  A    between atoms: C_3  and  C_5 
REMARK    4  A    between atoms: C_4  and  C_6 
REMARK    5  A    between atoms: C_5  and  C_7 
REMARK    6  A    between atoms: C_9  and  C_10 
REMARK    7  A    between atoms: C_9  and  C_13 
REMARK    8  A    between atoms: C_10  and  C_14 
REMARK    9  A    between atoms: C_11  and  C_12 
REMARK   10  A    between atoms: C_12  and  C_16 
REMARK   11  A    between atoms: C_13  and  C_22 
REMARK   12  A    between atoms: C_15  and  C_17 
REMARK   13  A    between atoms: C_15  and  C_20 
REMARK   14  A    between atoms: C_18  and  C_19 
REMARK   15  A    between atoms: C_18  and  C_21 
ROOT
HETATM    1  O   UNL     1      30.649  13.164 -16.609  1.00  0.00    -0.776 OA
HETATM    2  H   UNL     1      31.011  13.994 -16.270  1.00  0.00     0.167 HD
ENDROOT
BRANCH   1   3
HETATM    3  C   UNL     1      29.960  12.320 -15.813  1.00  0.00     0.139 C 
HETATM    4  O   UNL     1      28.774  12.111 -16.023  1.00  0.00    -0.650 OA
BRANCH   3   5
HETATM    5  C   UNL     1      30.652  11.647 -14.660  1.00  0.00     0.110 C 
BRANCH   5   6
HETATM    6  C   UNL     1      31.320  10.327 -15.070  1.00  0.00     0.014 C 
BRANCH   6   7
HETATM    7  C   UNL     1      30.599   9.098 -14.503  1.00  0.00     0.027 C 
BRANCH   7   8
HETATM    8  C   UNL     1      30.472   9.230 -13.006  1.00  0.00    -0.030 C 
HETATM    9  C   UNL     1      31.124   8.475 -12.101  1.00  0.00    -0.027 C 
BRANCH   9  10
HETATM   10  C   UNL     1      32.114   7.384 -12.424  1.00  0.00     0.053 C 
BRANCH  10  11
HETATM   11  C   UNL     1      31.448   6.025 -12.433  1.00  0.00    -0.027 C 
HETATM   12  C   UNL     1      31.145   5.267 -13.506  1.00  0.00    -0.027 C 
BRANCH  12  13
HETATM   13  C   UNL     1      31.419   5.592 -14.953  1.00  0.00     0.053 C 
BRANCH  13  14
HETATM   14  C   UNL     1      32.815   5.150 -15.326  1.00  0.00    -0.027 C 
HETATM   15  C   UNL     1      33.816   5.977 -15.692  1.00  0.00    -0.027 C 
BRANCH  15  16
HETATM   16  C   UNL     1      33.689   7.474 -15.802  1.00  0.00     0.053 C 
BRANCH  16  17
HETATM   17  C   UNL     1      33.939   7.948 -17.212  1.00  0.00    -0.027 C 
HETATM   18  C   UNL     1      32.970   8.119 -18.128  1.00  0.00    -0.030 C 
BRANCH  18  19
HETATM   19  C   UNL     1      31.505   7.856 -17.890  1.00  0.00     0.027 C 
BRANCH  19  20
HETATM   20  C   UNL     1      31.104   6.537 -18.559  1.00  0.00     0.004 C 
BRANCH  20  21
HETATM   21  C   UNL     1      31.876   6.320 -19.865  1.00  0.00    -0.000 C 
BRANCH  21  22
HETATM   22  C   UNL     1      30.978   6.582 -21.080  1.00  0.00    -0.005 C 
HETATM   23  C   UNL     1      30.176   5.338 -21.451  1.00  0.00     0.005 C 
ENDBRANCH  21  22
ENDBRANCH  20  21
ENDBRANCH  19  20
ENDBRANCH  18  19
ENDBRANCH  16  17
ENDBRANCH  15  16
ENDBRANCH  13  14
ENDBRANCH  12  13
ENDBRANCH  10  11
ENDBRANCH   9  10
ENDBRANCH   7   8
ENDBRANCH   6   7
ENDBRANCH   5   6
ENDBRANCH   3   5
ENDBRANCH   1   3
TORSDOF 15
ENDMDL
MODEL 17
REMARK VINA RESULT:      -5.3     27.953     29.968
REMARK  15 active torsions:
REMARK  status: ('A' for Active; 'I' for Inactive)
REMARK    1  A    between atoms: O_1  and  C_22 
REMARK    2  A    between atoms: C_3  and  C_4 
REMARK    3  A    between atoms: C_3  and  C_5 
REMARK    4  A    between atoms: C_4  and  C_6 
REMARK    5  A    between atoms: C_5  and  C_7 
REMARK    6  A    between atoms: C_9  and  C_10 
REMARK    7  A    between atoms: C_9  and  C_13 
REMARK    8  A    between atoms: C_10  and  C_14 
REMARK    9  A    between atoms: C_11  and  C_12 
REMARK   10  A    between atoms: C_12  and  C_16 
REMARK   11  A    between atoms: C_13  and  C_22 
REMARK   12  A    between atoms: C_15  and  C_17 
REMARK   13  A    between atoms: C_15  and  C_20 
REMARK   14  A    between atoms: C_18  and  C_19 
REMARK   15  A    between atoms: C_18  and  C_21 
ROOT
HETATM    1  O   UNL     1      30.466   8.454  -7.224  1.00  0.00    -0.776 OA
HETATM    2  H   UNL     1      30.744   9.043  -7.939  1.00  0.00     0.167 HD
ENDROOT
BRANCH   1   3
HETATM    3  C   UNL     1      30.665   7.121  -7.295  1.00  0.00     0.139 C 
HETATM    4  O   UNL     1      30.023   6.367  -6.577  1.00  0.00    -0.650 OA
BRANCH   3   5
HETATM    5  C   UNL     1      31.686   6.566  -8.250  1.00  0.00     0.110 C 
BRANCH   5   6
HETATM    6  C   UNL     1      31.809   7.409  -9.527  1.00  0.00     0.014 C 
BRANCH   6   7
HETATM    7  C   UNL     1      30.647   7.178 -10.502  1.00  0.00     0.027 C 
BRANCH   7   8
HETATM    8  C   UNL     1      30.609   5.727 -10.911  1.00  0.00    -0.030 C 
HETATM    9  C   UNL     1      31.276   5.196 -11.953  1.00  0.00    -0.027 C 
BRANCH   9  10
HETATM   10  C   UNL     1      32.197   5.951 -12.878  1.00  0.00     0.053 C 
BRANCH  10  11
HETATM   11  C   UNL     1      31.423   6.898 -13.769  1.00  0.00    -0.027 C 
HETATM   12  C   UNL     1      30.953   6.658 -15.010  1.00  0.00    -0.027 C 
BRANCH  12  13
HETATM   13  C   UNL     1      31.074   5.376 -15.794  1.00  0.00     0.053 C 
BRANCH  13  14
HETATM   14  C   UNL     1      30.470   5.551 -17.167  1.00  0.00    -0.027 C 
HETATM   15  C   UNL     1      31.168   5.586 -18.321  1.00  0.00    -0.027 C 
BRANCH  15  16
HETATM   16  C   UNL     1      32.667   5.473 -18.415  1.00  0.00     0.053 C 
BRANCH  16  17
HETATM   17  C   UNL     1      33.267   6.656 -19.133  1.00  0.00    -0.027 C 
HETATM   18  C   UNL     1      33.557   7.826 -18.537  1.00  0.00    -0.030 C 
BRANCH  18  19
HETATM   19  C   UNL     1      33.317   8.132 -17.080  1.00  0.00     0.027 C 
BRANCH  19  20
HETATM   20  C   UNL     1      34.550   7.734 -16.261  1.00  0.00     0.004 C 
BRANCH  20  21
HETATM   21  C   UNL     1      34.496   8.332 -14.851  1.00  0.00    -0.000 C 
BRANCH  21  22
HETATM   22  C   UNL     1      34.214   9.838 -14.907  1.00  0.00    -0.005 C 
HETATM   23  C   UNL     1      33.088  10.224 -13.952  1.00  0.00     0.005 C 
ENDBRANCH  21  22
ENDBRANCH  20  21
ENDBRANCH  19  20
ENDBRANCH  18  19
ENDBRANCH  16  17
ENDBRANCH  15  16
ENDBRANCH  13  14
ENDBRANCH  12  13
ENDBRANCH  10  11
ENDBRANCH   9  10
ENDBRANCH   7   8
ENDBRANCH   6   7
ENDBRANCH   5   6
ENDBRANCH   3   5
ENDBRANCH   1   3
TORSDOF 15
ENDMDL
MODEL 18
REMARK VINA RESULT:      -5.3     28.481     29.624
REMARK  15 active torsions:
REMARK  status: ('A' for Active; 'I' for Inactive)
REMARK    1  A    between atoms: O_1  and  C_22 
REMARK    2  A    between atoms: C_3  and  C_4 
REMARK    3  A    between atoms: C_3  and  C_5 
REMARK    4  A    between atoms: C_4  and  C_6 
REMARK    5  A    between atoms: C_5  and  C_7 
REMARK    6  A    between atoms: C_9  and  C_10 
REMARK    7  A    between atoms: C_9  and  C_13 
REMARK    8  A    between atoms: C_10  and  C_14 
REMARK    9  A    between atoms: C_11  and  C_12 
REMARK   10  A    between atoms: C_12  and  C_16 
REMARK   11  A    between atoms: C_13  and  C_22 
REMARK   12  A    between atoms: C_15  and  C_17 
REMARK   13  A    between atoms: C_15  and  C_20 
REMARK   14  A    between atoms: C_18  and  C_19 
REMARK   15  A    between atoms: C_18  and  C_21 
ROOT
HETATM    1  O   UNL     1      31.901   4.191 -11.698  1.00  0.00    -0.776 OA
HETATM    2  H   UNL     1      31.166   3.642 -11.393  1.00  0.00     0.167 HD
ENDROOT
BRANCH   1   3
HETATM    3  C   UNL     1      31.703   5.223 -12.546  1.00  0.00     0.139 C 
HETATM    4  O   UNL     1      30.729   5.949 -12.411  1.00  0.00    -0.650 OA
BRANCH   3   5
HETATM    5  C   UNL     1      32.677   5.468 -13.665  1.00  0.00     0.110 C 
BRANCH   5   6
HETATM    6  C   UNL     1      32.006   5.419 -15.045  1.00  0.00     0.014 C 
BRANCH   6   7
HETATM    7  C   UNL     1      32.972   4.991 -16.158  1.00  0.00     0.027 C 
BRANCH   7   8
HETATM    8  C   UNL     1      32.283   5.090 -17.495  1.00  0.00    -0.030 C 
HETATM    9  C   UNL     1      32.467   6.077 -18.393  1.00  0.00    -0.027 C 
BRANCH   9  10
HETATM   10  C   UNL     1      33.410   7.242 -18.230  1.00  0.00     0.053 C 
BRANCH  10  11
HETATM   11  C   UNL     1      32.760   8.371 -17.462  1.00  0.00    -0.027 C 
HETATM   12  C   UNL     1      33.154   8.895 -16.283  1.00  0.00    -0.027 C 
BRANCH  12  13
HETATM   13  C   UNL     1      34.352   8.488 -15.464  1.00  0.00     0.053 C 
BRANCH  13  14
HETATM   14  C   UNL     1      34.739   9.605 -14.523  1.00  0.00    -0.027 C 
HETATM   15  C   UNL     1      34.674   9.539 -13.177  1.00  0.00    -0.027 C 
BRANCH  15  16
HETATM   16  C   UNL     1      34.189   8.341 -12.403  1.00  0.00     0.053 C 
BRANCH  16  17
HETATM   17  C   UNL     1      32.928   8.652 -11.637  1.00  0.00    -0.027 C 
HETATM   18  C   UNL     1      32.704   8.260 -10.371  1.00  0.00    -0.030 C 
BRANCH  18  19
HETATM   19  C   UNL     1      33.665   7.449  -9.539  1.00  0.00     0.027 C 
BRANCH  19  20
HETATM   20  C   UNL     1      32.988   6.149  -9.093  1.00  0.00     0.004 C 
BRANCH  20  21
HETATM   21  C   UNL     1      31.476   6.338  -8.929  1.00  0.00    -0.000 C 
BRANCH  21  22
HETATM   22  C   UNL     1      31.065   6.201  -7.458  1.00  0.00    -0.005 C 
HETATM   23  C   UNL     1      31.731   4.991  -6.810  1.00  0.00     0.005 C 
ENDBRANCH  21  22
ENDBRANCH  20  21
ENDBRANCH  19  20
ENDBRANCH  18  19
ENDBRANCH  16  17
ENDBRANCH  15  16
ENDBRANCH  13  14
ENDBRANCH  12  13
ENDBRANCH  10  11
ENDBRANCH   9  10
ENDBRANCH   7   8
ENDBRANCH   6   7
ENDBRANCH   5   6
ENDBRANCH   3   5
ENDBRANCH   1   3
TORSDOF 15
ENDMDL
MODEL 19
REMARK VINA RESULT:      -5.2     26.985     28.039
REMARK  15 active torsions:
REMARK  status: ('A' for Active; 'I' for Inactive)
REMARK    1  A    between atoms: O_1  and  C_22 
REMARK    2  A    between atoms: C_3  and  C_4 
REMARK    3  A    between atoms: C_3  and  C_5 
REMARK    4  A    between atoms: C_4  and  C_6 
REMARK    5  A    between atoms: C_5  and  C_7 
REMARK    6  A    between atoms: C_9  and  C_10 
REMARK    7  A    between atoms: C_9  and  C_13 
REMARK    8  A    between atoms: C_10  and  C_14 
REMARK    9  A    between atoms: C_11  and  C_12 
REMARK   10  A    between atoms: C_12  and  C_16 
REMARK   11  A    between atoms: C_13  and  C_22 
REMARK   12  A    between atoms: C_15  and  C_17 
REMARK   13  A    between atoms: C_15  and  C_20 
REMARK   14  A    between atoms: C_18  and  C_19 
REMARK   15  A    between atoms: C_18  and  C_21 
ROOT
HETATM    1  O   UNL     1      28.803  11.721 -17.843  1.00  0.00    -0.776 OA
HETATM    2  H   UNL     1      28.600  10.921 -17.339  1.00  0.00     0.167 HD
ENDROOT
BRANCH   1   3
HETATM    3  C   UNL     1      28.996  11.680 -19.178  1.00  0.00     0.139 C 
HETATM    4  O   UNL     1      28.106  12.036 -19.937  1.00  0.00    -0.650 OA
BRANCH   3   5
HETATM    5  C   UNL     1      30.305  11.186 -19.730  1.00  0.00     0.110 C 
BRANCH   5   6
HETATM    6  C   UNL     1      30.890  10.034 -18.900  1.00  0.00     0.014 C 
BRANCH   6   7
HETATM    7  C   UNL     1      30.454   8.655 -19.412  1.00  0.00     0.027 C 
BRANCH   7   8
HETATM    8  C   UNL     1      30.585   8.606 -20.913  1.00  0.00    -0.030 C 
HETATM    9  C   UNL     1      30.951   7.524 -21.626  1.00  0.00    -0.027 C 
BRANCH   9  10
HETATM   10  C   UNL     1      31.271   6.167 -21.052  1.00  0.00     0.053 C 
BRANCH  10  11
HETATM   11  C   UNL     1      32.759   5.998 -20.840  1.00  0.00    -0.027 C 
HETATM   12  C   UNL     1      33.433   6.059 -19.674  1.00  0.00    -0.027 C 
BRANCH  12  13
HETATM   13  C   UNL     1      32.854   6.290 -18.301  1.00  0.00     0.053 C 
BRANCH  13  14
HETATM   14  C   UNL     1      32.343   4.989 -17.730  1.00  0.00    -0.027 C 
HETATM   15  C   UNL     1      32.459   4.612 -16.440  1.00  0.00    -0.027 C 
BRANCH  15  16
HETATM   16  C   UNL     1      33.135   5.428 -15.370  1.00  0.00     0.053 C 
BRANCH  16  17
HETATM   17  C   UNL     1      32.249   5.598 -14.162  1.00  0.00    -0.027 C 
HETATM   18  C   UNL     1      31.281   6.527 -14.067  1.00  0.00    -0.030 C 
BRANCH  18  19
HETATM   19  C   UNL     1      30.948   7.535 -15.137  1.00  0.00     0.027 C 
BRANCH  19  20
HETATM   20  C   UNL     1      31.717   8.834 -14.877  1.00  0.00     0.004 C 
BRANCH  20  21
HETATM   21  C   UNL     1      32.798   9.061 -15.940  1.00  0.00    -0.000 C 
BRANCH  21  22
HETATM   22  C   UNL     1      34.145   9.394 -15.286  1.00  0.00    -0.005 C 
HETATM   23  C   UNL     1      34.243   8.790 -13.888  1.00  0.00     0.005 C 
ENDBRANCH  21  22
ENDBRANCH  20  21
ENDBRANCH  19  20
ENDBRANCH  18  19
ENDBRANCH  16  17
ENDBRANCH  15  16
ENDBRANCH  13  14
ENDBRANCH  12  13
ENDBRANCH  10  11
ENDBRANCH   9  10
ENDBRANCH   7   8
ENDBRANCH   6   7
ENDBRANCH   5   6
ENDBRANCH   3   5
ENDBRANCH   1   3
TORSDOF 15
ENDMDL
MODEL 20
REMARK VINA RESULT:      -5.2     27.567     28.898
REMARK  15 active torsions:
REMARK  status: ('A' for Active; 'I' for Inactive)
REMARK    1  A    between atoms: O_1  and  C_22 
REMARK    2  A    between atoms: C_3  and  C_4 
REMARK    3  A    between atoms: C_3  and  C_5 
REMARK    4  A    between atoms: C_4  and  C_6 
REMARK    5  A    between atoms: C_5  and  C_7 
REMARK    6  A    between atoms: C_9  and  C_10 
REMARK    7  A    between atoms: C_9  and  C_13 
REMARK    8  A    between atoms: C_10  and  C_14 
REMARK    9  A    between atoms: C_11  and  C_12 
REMARK   10  A    between atoms: C_12  and  C_16 
REMARK   11  A    between atoms: C_13  and  C_22 
REMARK   12  A    between atoms: C_15  and  C_17 
REMARK   13  A    between atoms: C_15  and  C_20 
REMARK   14  A    between atoms: C_18  and  C_19 
REMARK   15  A    between atoms: C_18  and  C_21 
ROOT
HETATM    1  O   UNL     1      28.756  12.572 -11.751  1.00  0.00    -0.776 OA
HETATM    2  H   UNL     1      28.588  12.474 -10.804  1.00  0.00     0.167 HD
ENDROOT
BRANCH   1   3
HETATM    3  C   UNL     1      29.426  11.629 -12.447  1.00  0.00     0.139 C 
HETATM    4  O   UNL     1      28.822  10.690 -12.946  1.00  0.00    -0.650 OA
BRANCH   3   5
HETATM    5  C   UNL     1      30.919  11.731 -12.597  1.00  0.00     0.110 C 
BRANCH   5   6
HETATM    6  C   UNL     1      31.649  10.512 -12.014  1.00  0.00     0.014 C 
BRANCH   6   7
HETATM    7  C   UNL     1      32.156   9.552 -13.097  1.00  0.00     0.027 C 
BRANCH   7   8
HETATM    8  C   UNL     1      33.576   9.902 -13.463  1.00  0.00    -0.030 C 
HETATM    9  C   UNL     1      34.414   9.115 -14.164  1.00  0.00    -0.027 C 
BRANCH   9  10
HETATM   10  C   UNL     1      34.075   7.758 -14.725  1.00  0.00     0.053 C 
BRANCH  10  11
HETATM   11  C   UNL     1      33.648   7.854 -16.173  1.00  0.00    -0.027 C 
HETATM   12  C   UNL     1      32.399   7.740 -16.670  1.00  0.00    -0.027 C 
BRANCH  12  13
HETATM   13  C   UNL     1      31.130   7.507 -15.890  1.00  0.00     0.053 C 
BRANCH  13  14
HETATM   14  C   UNL     1      30.820   6.030 -15.834  1.00  0.00    -0.027 C 
HETATM   15  C   UNL     1      30.896   5.265 -14.726  1.00  0.00    -0.027 C 
BRANCH  15  16
HETATM   16  C   UNL     1      31.318   5.766 -13.370  1.00  0.00     0.053 C 
BRANCH  16  17
HETATM   17  C   UNL     1      30.342   5.350 -12.298  1.00  0.00    -0.027 C 
HETATM   18  C   UNL     1      30.623   5.360 -10.983  1.00  0.00    -0.030 C 
BRANCH  18  19
HETATM   19  C   UNL     1      31.946   5.774 -10.390  1.00  0.00     0.027 C 
BRANCH  19  20
HETATM   20  C   UNL     1      31.939   7.282 -10.117  1.00  0.00     0.004 C 
BRANCH  20  21
HETATM   21  C   UNL     1      33.036   7.671  -9.121  1.00  0.00    -0.000 C 
BRANCH  21  22
HETATM   22  C   UNL     1      34.151   8.461  -9.817  1.00  0.00    -0.005 C 
HETATM   23  C   UNL     1      34.867   7.604 -10.856  1.00  0.00     0.005 C 
ENDBRANCH  21  22
ENDBRANCH  20  21
ENDBRANCH  19  20
ENDBRANCH  18  19
ENDBRANCH  16  17
ENDBRANCH  15  16
ENDBRANCH  13  14
ENDBRANCH  12  13
ENDBRANCH  10  11
ENDBRANCH   9  10
ENDBRANCH   7   8
ENDBRANCH   6   7
ENDBRANCH   5   6
ENDBRANCH   3   5
ENDBRANCH   1   3
TORSDOF 15
ENDMDL
