MODEL 1
REMARK VINA RESULT:      -7.9      0.000      0.000
REMARK  15 active torsions:
REMARK  status: ('A' for Active; 'I' for Inactive)
REMARK    1  A    between atoms: O_1  and  C_23 
REMARK    2  A    between atoms: C_3  and  C_7 
REMARK    3  A    between atoms: C_3  and  C_8 
REMARK    4  A    between atoms: C_4  and  C_10 
REMARK    5  A    between atoms: C_4  and  C_11 
REMARK    6  A    between atoms: C_5  and  C_12 
REMARK    7  A    between atoms: C_5  and  C_13 
REMARK    8  A    between atoms: C_6  and  C_15 
REMARK    9  A    between atoms: C_6  and  C_16 
REMARK   10  A    between atoms: C_7  and  C_23 
REMARK   11  A    between atoms: C_9  and  C_17 
REMARK   12  A    between atoms: C_9  and  C_18 
REMARK   13  A    between atoms: C_14  and  C_19 
REMARK   14  A    between atoms: C_14  and  C_20 
REMARK   15  A    between atoms: C_21  and  C_22 
ROOT
HETATM    1  O   UNL     1       3.115   8.569 -19.884  1.00  0.00    -0.776 OA
HETATM    2  H   UNL     1       2.938   8.313 -20.800  1.00  0.00     0.167 HD
ENDROOT
BRANCH   1   3
HETATM    3  C   UNL     1       4.151   9.373 -19.565  1.00  0.00     0.139 C 
HETATM    4  O   UNL     1       5.166   9.363 -20.246  1.00  0.00    -0.650 OA
BRANCH   3   5
HETATM    5  C   UNL     1       4.051  10.281 -18.373  1.00  0.00     0.113 C 
BRANCH   5   6
HETATM    6  C   UNL     1       3.896   9.473 -17.080  1.00  0.00     0.037 C 
BRANCH   6   7
HETATM    7  C   UNL     1       5.131   9.600 -16.220  1.00  0.00    -0.030 C 
HETATM    8  C   UNL     1       5.210   9.435 -14.883  1.00  0.00    -0.027 C 
BRANCH   8   9
HETATM    9  C   UNL     1       4.088   9.083 -13.930  1.00  0.00     0.053 C 
BRANCH   9  10
HETATM   10  C   UNL     1       3.679  10.285 -13.116  1.00  0.00    -0.027 C 
HETATM   11  C   UNL     1       3.517  10.312 -11.781  1.00  0.00    -0.027 C 
BRANCH  11  12
HETATM   12  C   UNL     1       3.771   9.158 -10.846  1.00  0.00     0.053 C 
BRANCH  12  13
HETATM   13  C   UNL     1       5.110   9.301 -10.167  1.00  0.00    -0.027 C 
HETATM   14  C   UNL     1       5.337   9.784  -8.931  1.00  0.00    -0.027 C 
BRANCH  14  15
HETATM   15  C   UNL     1       4.297  10.330  -7.988  1.00  0.00     0.053 C 
BRANCH  15  16
HETATM   16  C   UNL     1       3.687   9.175  -7.225  1.00  0.00    -0.027 C 
HETATM   17  C   UNL     1       3.653   8.990  -5.890  1.00  0.00    -0.027 C 
BRANCH  17  18
HETATM   18  C   UNL     1       4.203   9.909  -4.830  1.00  0.00     0.053 C 
BRANCH  18  19
HETATM   19  C   UNL     1       5.695   9.721  -4.683  1.00  0.00    -0.027 C 
HETATM   20  C   UNL     1       6.452   9.980  -3.598  1.00  0.00    -0.027 C 
BRANCH  20  21
HETATM   21  C   UNL     1       5.976  10.470  -2.252  1.00  0.00     0.053 C 
BRANCH  21  22
HETATM   22  C   UNL     1       6.133  11.968  -2.139  1.00  0.00    -0.027 C 
HETATM   23  C   UNL     1       5.258  12.841  -1.602  1.00  0.00    -0.031 C 
BRANCH  23  24
HETATM   24  C   UNL     1       3.912  12.514  -1.011  1.00  0.00     0.022 C 
HETATM   25  C   UNL     1       2.857  12.245  -2.076  1.00  0.00     0.009 C 
ENDBRANCH  23  24
ENDBRANCH  21  22
ENDBRANCH  20  21
ENDBRANCH  18  19
ENDBRANCH  17  18
ENDBRANCH  15  16
ENDBRANCH  14  15
ENDBRANCH  12  13
ENDBRANCH  11  12
ENDBRANCH   9  10
ENDBRANCH   8   9
ENDBRANCH   6   7
ENDBRANCH   5   6
ENDBRANCH   3   5
ENDBRANCH   1   3
TORSDOF 15
ENDMDL
MODEL 2
REMARK VINA RESULT:      -6.2     27.100     29.788
REMARK  15 active torsions:
REMARK  status: ('A' for Active; 'I' for Inactive)
REMARK    1  A    between atoms: O_1  and  C_23 
REMARK    2  A    between atoms: C_3  and  C_7 
REMARK    3  A    between atoms: C_3  and  C_8 
REMARK    4  A    between atoms: C_4  and  C_10 
REMARK    5  A    between atoms: C_4  and  C_11 
REMARK    6  A    between atoms: C_5  and  C_12 
REMARK    7  A    between atoms: C_5  and  C_13 
REMARK    8  A    between atoms: C_6  and  C_15 
REMARK    9  A    between atoms: C_6  and  C_16 
REMARK   10  A    between atoms: C_7  and  C_23 
REMARK   11  A    between atoms: C_9  and  C_17 
REMARK   12  A    between atoms: C_9  and  C_18 
REMARK   13  A    between atoms: C_14  and  C_19 
REMARK   14  A    between atoms: C_14  and  C_20 
REMARK   15  A    between atoms: C_21  and  C_22 
ROOT
HETATM    1  O   UNL     1      27.922  10.508 -19.164  1.00  0.00    -0.776 OA
HETATM    2  H   UNL     1      27.645  10.089 -18.337  1.00  0.00     0.167 HD
ENDROOT
BRANCH   1   3
HETATM    3  C   UNL     1      29.047  10.125 -19.804  1.00  0.00     0.139 C 
HETATM    4  O   UNL     1      29.148  10.282 -21.013  1.00  0.00    -0.650 OA
BRANCH   3   5
HETATM    5  C   UNL     1      30.176   9.511 -19.026  1.00  0.00     0.113 C 
BRANCH   5   6
HETATM    6  C   UNL     1      31.115  10.592 -18.478  1.00  0.00     0.037 C 
BRANCH   6   7
HETATM    7  C   UNL     1      30.792  10.895 -17.034  1.00  0.00    -0.030 C 
HETATM    8  C   UNL     1      31.235  10.230 -15.946  1.00  0.00    -0.027 C 
BRANCH   8   9
HETATM    9  C   UNL     1      32.156   9.029 -15.912  1.00  0.00     0.053 C 
BRANCH   9  10
HETATM   10  C   UNL     1      33.599   9.456 -16.007  1.00  0.00    -0.027 C 
HETATM   11  C   UNL     1      34.460   9.104 -16.980  1.00  0.00    -0.027 C 
BRANCH  11  12
HETATM   12  C   UNL     1      34.122   8.265 -18.184  1.00  0.00     0.053 C 
BRANCH  12  13
HETATM   13  C   UNL     1      34.327   9.046 -19.459  1.00  0.00    -0.027 C 
HETATM   14  C   UNL     1      34.271   8.563 -20.714  1.00  0.00    -0.027 C 
BRANCH  14  15
HETATM   15  C   UNL     1      34.040   7.127 -21.103  1.00  0.00     0.053 C 
BRANCH  15  16
HETATM   16  C   UNL     1      33.342   7.098 -22.444  1.00  0.00    -0.027 C 
HETATM   17  C   UNL     1      32.016   7.132 -22.689  1.00  0.00    -0.027 C 
BRANCH  17  18
HETATM   18  C   UNL     1      30.907   7.227 -21.676  1.00  0.00     0.053 C 
BRANCH  18  19
HETATM   19  C   UNL     1      30.570   5.862 -21.123  1.00  0.00    -0.027 C 
HETATM   20  C   UNL     1      30.841   5.385 -19.891  1.00  0.00    -0.027 C 
BRANCH  20  21
HETATM   21  C   UNL     1      31.498   6.126 -18.753  1.00  0.00     0.053 C 
BRANCH  21  22
HETATM   22  C   UNL     1      30.786   5.849 -17.449  1.00  0.00    -0.027 C 
HETATM   23  C   UNL     1      31.283   5.218 -16.367  1.00  0.00    -0.031 C 
BRANCH  23  24
HETATM   24  C   UNL     1      32.663   4.629 -16.227  1.00  0.00     0.022 C 
HETATM   25  C   UNL     1      33.674   5.633 -15.689  1.00  0.00     0.009 C 
ENDBRANCH  23  24
ENDBRANCH  21  22
ENDBRANCH  20  21
ENDBRANCH  18  19
ENDBRANCH  17  18
ENDBRANCH  15  16
ENDBRANCH  14  15
ENDBRANCH  12  13
ENDBRANCH  11  12
ENDBRANCH   9  10
ENDBRANCH   8   9
ENDBRANCH   6   7
ENDBRANCH   5   6
ENDBRANCH   3   5
ENDBRANCH   1   3
TORSDOF 15
ENDMDL
MODEL 3
REMARK VINA RESULT:      -6.2     26.842     28.274
REMARK  15 active torsions:
REMARK  status: ('A' for Active; 'I' for Inactive)
REMARK    1  A    between atoms: O_1  and  C_23 
REMARK    2  A    between atoms: C_3  and  C_7 
REMARK    3  A    between atoms: C_3  and  C_8 
REMARK    4  A    between atoms: C_4  and  C_10 
REMARK    5  A    between atoms: C_4  and  C_11 
REMARK    6  A    between atoms: C_5  and  C_12 
REMARK    7  A    between atoms: C_5  and  C_13 
REMARK    8  A    between atoms: C_6  and  C_15 
REMARK    9  A    between atoms: C_6  and  C_16 
REMARK   10  A    between atoms: C_7  and  C_23 
REMARK   11  A    between atoms: C_9  and  C_17 
REMARK   12  A    between atoms: C_9  and  C_18 
REMARK   13  A    between atoms: C_14  and  C_19 
REMARK   14  A    between atoms: C_14  and  C_20 
REMARK   15  A    between atoms: C_21  and  C_22 
ROOT
HETATM    1  O   UNL     1      28.361  10.429 -13.892  1.00  0.00    -0.776 OA
HETATM    2  H   UNL     1      27.455  10.703 -14.091  1.00  0.00     0.167 HD
ENDROOT
BRANCH   1   3
HETATM    3  C   UNL     1      29.304  10.364 -14.856  1.00  0.00     0.139 C 
HETATM    4  O   UNL     1      28.992  10.059 -15.999  1.00  0.00    -0.650 OA
BRANCH   3   5
HETATM    5  C   UNL     1      30.736  10.670 -14.521  1.00  0.00     0.113 C 
BRANCH   5   6
HETATM    6  C   UNL     1      31.110  10.101 -13.147  1.00  0.00     0.037 C 
BRANCH   6   7
HETATM    7  C   UNL     1      32.513  10.509 -12.767  1.00  0.00    -0.030 C 
HETATM    8  C   UNL     1      33.642   9.786 -12.931  1.00  0.00    -0.027 C 
BRANCH   8   9
HETATM    9  C   UNL     1      33.771   8.403 -13.531  1.00  0.00     0.053 C 
BRANCH   9  10
HETATM   10  C   UNL     1      34.596   8.440 -14.793  1.00  0.00    -0.027 C 
HETATM   11  C   UNL     1      34.660   7.466 -15.718  1.00  0.00    -0.027 C 
BRANCH  11  12
HETATM   12  C   UNL     1      33.873   6.181 -15.692  1.00  0.00     0.053 C 
BRANCH  12  13
HETATM   13  C   UNL     1      32.649   6.282 -16.567  1.00  0.00    -0.027 C 
HETATM   14  C   UNL     1      31.390   5.943 -16.228  1.00  0.00    -0.027 C 
BRANCH  14  15
HETATM   15  C   UNL     1      30.955   5.346 -14.917  1.00  0.00     0.053 C 
BRANCH  15  16
HETATM   16  C   UNL     1      30.751   6.466 -13.922  1.00  0.00    -0.027 C 
HETATM   17  C   UNL     1      30.830   6.405 -12.577  1.00  0.00    -0.027 C 
BRANCH  17  18
HETATM   18  C   UNL     1      31.162   5.198 -11.740  1.00  0.00     0.053 C 
BRANCH  18  19
HETATM   19  C   UNL     1      32.645   4.915 -11.778  1.00  0.00    -0.027 C 
HETATM   20  C   UNL     1      33.580   5.312 -10.891  1.00  0.00    -0.027 C 
BRANCH  20  21
HETATM   21  C   UNL     1      33.354   6.090  -9.618  1.00  0.00     0.053 C 
BRANCH  21  22
HETATM   22  C   UNL     1      33.345   7.576  -9.890  1.00  0.00    -0.027 C 
HETATM   23  C   UNL     1      32.315   8.429  -9.724  1.00  0.00    -0.031 C 
BRANCH  23  24
HETATM   24  C   UNL     1      30.930   8.080  -9.244  1.00  0.00     0.022 C 
HETATM   25  C   UNL     1      30.853   7.951  -7.729  1.00  0.00     0.009 C 
ENDBRANCH  23  24
ENDBRANCH  21  22
ENDBRANCH  20  21
ENDBRANCH  18  19
ENDBRANCH  17  18
ENDBRANCH  15  16
ENDBRANCH  14  15
ENDBRANCH  12  13
ENDBRANCH  11  12
ENDBRANCH   9  10
ENDBRANCH   8   9
ENDBRANCH   6   7
ENDBRANCH   5   6
ENDBRANCH   3   5
ENDBRANCH   1   3
TORSDOF 15
ENDMDL
MODEL 4
REMARK VINA RESULT:      -6.2     27.250     29.175
REMARK  15 active torsions:
REMARK  status: ('A' for Active; 'I' for Inactive)
REMARK    1  A    between atoms: O_1  and  C_23 
REMARK    2  A    between atoms: C_3  and  C_7 
REMARK    3  A    between atoms: C_3  and  C_8 
REMARK    4  A    between atoms: C_4  and  C_10 
REMARK    5  A    between atoms: C_4  and  C_11 
REMARK    6  A    between atoms: C_5  and  C_12 
REMARK    7  A    between atoms: C_5  and  C_13 
REMARK    8  A    between atoms: C_6  and  C_15 
REMARK    9  A    between atoms: C_6  and  C_16 
REMARK   10  A    between atoms: C_7  and  C_23 
REMARK   11  A    between atoms: C_9  and  C_17 
REMARK   12  A    between atoms: C_9  and  C_18 
REMARK   13  A    between atoms: C_14  and  C_19 
REMARK   14  A    between atoms: C_14  and  C_20 
REMARK   15  A    between atoms: C_21  and  C_22 
ROOT
HETATM    1  O   UNL     1      28.316  11.934 -14.968  1.00  0.00    -0.776 OA
HETATM    2  H   UNL     1      28.176  12.006 -15.923  1.00  0.00     0.167 HD
ENDROOT
BRANCH   1   3
HETATM    3  C   UNL     1      28.693  10.770 -14.398  1.00  0.00     0.139 C 
HETATM    4  O   UNL     1      28.333   9.706 -14.881  1.00  0.00    -0.650 OA
BRANCH   3   5
HETATM    5  C   UNL     1      29.560  10.788 -13.171  1.00  0.00     0.113 C 
BRANCH   5   6
HETATM    6  C   UNL     1      30.507   9.583 -13.153  1.00  0.00     0.037 C 
BRANCH   6   7
HETATM    7  C   UNL     1      31.812   9.921 -13.834  1.00  0.00    -0.030 C 
HETATM    8  C   UNL     1      33.047   9.881 -13.289  1.00  0.00    -0.027 C 
BRANCH   8   9
HETATM    9  C   UNL     1      33.417   9.490 -11.874  1.00  0.00     0.053 C 
BRANCH   9  10
HETATM   10  C   UNL     1      34.359   8.313 -11.872  1.00  0.00    -0.027 C 
HETATM   11  C   UNL     1      34.415   7.354 -10.930  1.00  0.00    -0.027 C 
BRANCH  11  12
HETATM   12  C   UNL     1      33.506   7.249  -9.734  1.00  0.00     0.053 C 
BRANCH  12  13
HETATM   13  C   UNL     1      33.038   5.829  -9.536  1.00  0.00    -0.027 C 
HETATM   14  C   UNL     1      31.861   5.309  -9.931  1.00  0.00    -0.027 C 
BRANCH  14  15
HETATM   15  C   UNL     1      30.745   6.056 -10.612  1.00  0.00     0.053 C 
BRANCH  15  16
HETATM   16  C   UNL     1      30.304   5.263 -11.822  1.00  0.00    -0.027 C 
HETATM   17  C   UNL     1      30.749   5.369 -13.090  1.00  0.00    -0.027 C 
BRANCH  17  18
HETATM   18  C   UNL     1      31.817   6.298 -13.604  1.00  0.00     0.053 C 
BRANCH  18  19
HETATM   19  C   UNL     1      32.921   5.520 -14.282  1.00  0.00    -0.027 C 
HETATM   20  C   UNL     1      33.682   5.912 -15.324  1.00  0.00    -0.027 C 
BRANCH  20  21
HETATM   21  C   UNL     1      33.646   7.248 -16.024  1.00  0.00     0.053 C 
BRANCH  21  22
HETATM   22  C   UNL     1      34.895   8.045 -15.727  1.00  0.00    -0.027 C 
HETATM   23  C   UNL     1      35.206   9.274 -16.183  1.00  0.00    -0.031 C 
BRANCH  23  24
HETATM   24  C   UNL     1      34.377  10.123 -17.111  1.00  0.00     0.022 C 
HETATM   25  C   UNL     1      35.224  10.865 -18.136  1.00  0.00     0.009 C 
ENDBRANCH  23  24
ENDBRANCH  21  22
ENDBRANCH  20  21
ENDBRANCH  18  19
ENDBRANCH  17  18
ENDBRANCH  15  16
ENDBRANCH  14  15
ENDBRANCH  12  13
ENDBRANCH  11  12
ENDBRANCH   9  10
ENDBRANCH   8   9
ENDBRANCH   6   7
ENDBRANCH   5   6
ENDBRANCH   3   5
ENDBRANCH   1   3
TORSDOF 15
ENDMDL
MODEL 5
REMARK VINA RESULT:      -6.1     26.429     28.633
REMARK  15 active torsions:
REMARK  status: ('A' for Active; 'I' for Inactive)
REMARK    1  A    between atoms: O_1  and  C_23 
REMARK    2  A    between atoms: C_3  and  C_7 
REMARK    3  A    between atoms: C_3  and  C_8 
REMARK    4  A    between atoms: C_4  and  C_10 
REMARK    5  A    between atoms: C_4  and  C_11 
REMARK    6  A    between atoms: C_5  and  C_12 
REMARK    7  A    between atoms: C_5  and  C_13 
REMARK    8  A    between atoms: C_6  and  C_15 
REMARK    9  A    between atoms: C_6  and  C_16 
REMARK   10  A    between atoms: C_7  and  C_23 
REMARK   11  A    between atoms: C_9  and  C_17 
REMARK   12  A    between atoms: C_9  and  C_18 
REMARK   13  A    between atoms: C_14  and  C_19 
REMARK   14  A    between atoms: C_14  and  C_20 
REMARK   15  A    between atoms: C_21  and  C_22 
ROOT
HETATM    1  O   UNL     1      28.436  10.531  -8.720  1.00  0.00    -0.776 OA
HETATM    2  H   UNL     1      28.156  11.407  -8.421  1.00  0.00     0.167 HD
ENDROOT
BRANCH   1   3
HETATM    3  C   UNL     1      29.264  10.378  -9.775  1.00  0.00     0.139 C 
HETATM    4  O   UNL     1      28.807  10.126 -10.881  1.00  0.00    -0.650 OA
BRANCH   3   5
HETATM    5  C   UNL     1      30.747  10.523  -9.587  1.00  0.00     0.113 C 
BRANCH   5   6
HETATM    6  C   UNL     1      31.423   9.150  -9.486  1.00  0.00     0.037 C 
BRANCH   6   7
HETATM    7  C   UNL     1      32.882   9.246  -9.861  1.00  0.00    -0.030 C 
HETATM    8  C   UNL     1      33.930   8.734  -9.182  1.00  0.00    -0.027 C 
BRANCH   8   9
HETATM    9  C   UNL     1      33.895   7.946  -7.890  1.00  0.00     0.053 C 
BRANCH   9  10
HETATM   10  C   UNL     1      34.627   8.678  -6.794  1.00  0.00    -0.027 C 
HETATM   11  C   UNL     1      34.508   8.441  -5.475  1.00  0.00    -0.027 C 
BRANCH  11  12
HETATM   12  C   UNL     1      33.663   7.359  -4.855  1.00  0.00     0.053 C 
BRANCH  12  13
HETATM   13  C   UNL     1      32.414   7.939  -4.239  1.00  0.00    -0.027 C 
HETATM   14  C   UNL     1      31.174   7.913  -4.763  1.00  0.00    -0.027 C 
BRANCH  14  15
HETATM   15  C   UNL     1      30.788   7.341  -6.101  1.00  0.00     0.053 C 
BRANCH  15  16
HETATM   16  C   UNL     1      30.759   5.833  -5.988  1.00  0.00    -0.027 C 
HETATM   17  C   UNL     1      31.251   4.927  -6.857  1.00  0.00    -0.027 C 
BRANCH  17  18
HETATM   18  C   UNL     1      31.970   5.205  -8.151  1.00  0.00     0.053 C 
BRANCH  18  19
HETATM   19  C   UNL     1      30.983   5.496  -9.258  1.00  0.00    -0.027 C 
HETATM   20  C   UNL     1      31.178   5.367 -10.586  1.00  0.00    -0.027 C 
BRANCH  20  21
HETATM   21  C   UNL     1      32.414   4.849 -11.278  1.00  0.00     0.053 C 
BRANCH  21  22
HETATM   22  C   UNL     1      33.347   5.983 -11.635  1.00  0.00    -0.027 C 
HETATM   23  C   UNL     1      33.173   6.908 -12.599  1.00  0.00    -0.031 C 
BRANCH  23  24
HETATM   24  C   UNL     1      32.011   7.003 -13.553  1.00  0.00     0.022 C 
HETATM   25  C   UNL     1      30.975   8.028 -13.110  1.00  0.00     0.009 C 
ENDBRANCH  23  24
ENDBRANCH  21  22
ENDBRANCH  20  21
ENDBRANCH  18  19
ENDBRANCH  17  18
ENDBRANCH  15  16
ENDBRANCH  14  15
ENDBRANCH  12  13
ENDBRANCH  11  12
ENDBRANCH   9  10
ENDBRANCH   8   9
ENDBRANCH   6   7
ENDBRANCH   5   6
ENDBRANCH   3   5
ENDBRANCH   1   3
TORSDOF 15
ENDMDL
MODEL 6
REMARK VINA RESULT:      -6.1     26.920     28.804
REMARK  15 active torsions:
REMARK  status: ('A' for Active; 'I' for Inactive)
REMARK    1  A    between atoms: O_1  and  C_23 
REMARK    2  A    between atoms: C_3  and  C_7 
REMARK    3  A    between atoms: C_3  and  C_8 
REMARK    4  A    between atoms: C_4  and  C_10 
REMARK    5  A    between atoms: C_4  and  C_11 
REMARK    6  A    between atoms: C_5  and  C_12 
REMARK    7  A    between atoms: C_5  and  C_13 
REMARK    8  A    between atoms: C_6  and  C_15 
REMARK    9  A    between atoms: C_6  and  C_16 
REMARK   10  A    between atoms: C_7  and  C_23 
REMARK   11  A    between atoms: C_9  and  C_17 
REMARK   12  A    between atoms: C_9  and  C_18 
REMARK   13  A    between atoms: C_14  and  C_19 
REMARK   14  A    between atoms: C_14  and  C_20 
REMARK   15  A    between atoms: C_21  and  C_22 
ROOT
HETATM    1  O   UNL     1      28.121  12.169 -14.883  1.00  0.00    -0.776 OA
HETATM    2  H   UNL     1      28.469  13.032 -14.618  1.00  0.00     0.167 HD
ENDROOT
BRANCH   1   3
HETATM    3  C   UNL     1      28.744  11.023 -14.536  1.00  0.00     0.139 C 
HETATM    4  O   UNL     1      28.547  10.527 -13.436  1.00  0.00    -0.650 OA
BRANCH   3   5
HETATM    5  C   UNL     1      29.676  10.357 -15.508  1.00  0.00     0.113 C 
BRANCH   5   6
HETATM    6  C   UNL     1      30.399   9.175 -14.851  1.00  0.00     0.037 C 
BRANCH   6   7
HETATM    7  C   UNL     1      30.394   7.974 -15.765  1.00  0.00    -0.030 C 
HETATM    8  C   UNL     1      30.934   6.761 -15.516  1.00  0.00    -0.027 C 
BRANCH   8   9
HETATM    9  C   UNL     1      31.668   6.319 -14.269  1.00  0.00     0.053 C 
BRANCH   9  10
HETATM   10  C   UNL     1      30.935   5.193 -13.585  1.00  0.00    -0.027 C 
HETATM   11  C   UNL     1      30.499   5.198 -12.312  1.00  0.00    -0.027 C 
BRANCH  11  12
HETATM   12  C   UNL     1      30.615   6.354 -11.353  1.00  0.00     0.053 C 
BRANCH  12  13
HETATM   13  C   UNL     1      30.718   5.865  -9.930  1.00  0.00    -0.027 C 
HETATM   14  C   UNL     1      31.851   5.606  -9.250  1.00  0.00    -0.027 C 
BRANCH  14  15
HETATM   15  C   UNL     1      33.252   5.705  -9.791  1.00  0.00     0.053 C 
BRANCH  15  16
HETATM   16  C   UNL     1      33.741   7.124  -9.601  1.00  0.00    -0.027 C 
HETATM   17  C   UNL     1      34.135   7.999 -10.549  1.00  0.00    -0.027 C 
BRANCH  17  18
HETATM   18  C   UNL     1      34.165   7.774 -12.038  1.00  0.00     0.053 C 
BRANCH  18  19
HETATM   19  C   UNL     1      33.794   9.039 -12.776  1.00  0.00    -0.027 C 
HETATM   20  C   UNL     1      33.969   9.307 -14.086  1.00  0.00    -0.027 C 
BRANCH  20  21
HETATM   21  C   UNL     1      34.529   8.380 -15.137  1.00  0.00     0.053 C 
BRANCH  21  22
HETATM   22  C   UNL     1      35.043   9.161 -16.324  1.00  0.00    -0.027 C 
HETATM   23  C   UNL     1      34.451   9.299 -17.527  1.00  0.00    -0.031 C 
BRANCH  23  24
HETATM   24  C   UNL     1      33.147   8.683 -17.961  1.00  0.00     0.022 C 
HETATM   25  C   UNL     1      33.307   7.239 -18.417  1.00  0.00     0.009 C 
ENDBRANCH  23  24
ENDBRANCH  21  22
ENDBRANCH  20  21
ENDBRANCH  18  19
ENDBRANCH  17  18
ENDBRANCH  15  16
ENDBRANCH  14  15
ENDBRANCH  12  13
ENDBRANCH  11  12
ENDBRANCH   9  10
ENDBRANCH   8   9
ENDBRANCH   6   7
ENDBRANCH   5   6
ENDBRANCH   3   5
ENDBRANCH   1   3
TORSDOF 15
ENDMDL
MODEL 7
REMARK VINA RESULT:      -6.0     25.870     27.847
REMARK  15 active torsions:
REMARK  status: ('A' for Active; 'I' for Inactive)
REMARK    1  A    between atoms: O_1  and  C_23 
REMARK    2  A    between atoms: C_3  and  C_7 
REMARK    3  A    between atoms: C_3  and  C_8 
REMARK    4  A    between atoms: C_4  and  C_10 
REMARK    5  A    between atoms: C_4  and  C_11 
REMARK    6  A    between atoms: C_5  and  C_12 
REMARK    7  A    between atoms: C_5  and  C_13 
REMARK    8  A    between atoms: C_6  and  C_15 
REMARK    9  A    between atoms: C_6  and  C_16 
REMARK   10  A    between atoms: C_7  and  C_23 
REMARK   11  A    between atoms: C_9  and  C_17 
REMARK   12  A    between atoms: C_9  and  C_18 
REMARK   13  A    between atoms: C_14  and  C_19 
REMARK   14  A    between atoms: C_14  and  C_20 
REMARK   15  A    between atoms: C_21  and  C_22 
ROOT
HETATM    1  O   UNL     1      28.491  12.279  -4.989  1.00  0.00    -0.776 OA
HETATM    2  H   UNL     1      29.069  13.024  -4.772  1.00  0.00     0.167 HD
ENDROOT
BRANCH   1   3
HETATM    3  C   UNL     1      28.982  11.141  -5.526  1.00  0.00     0.139 C 
HETATM    4  O   UNL     1      28.448  10.069  -5.282  1.00  0.00    -0.650 OA
BRANCH   3   5
HETATM    5  C   UNL     1      30.182  11.199  -6.428  1.00  0.00     0.113 C 
BRANCH   5   6
HETATM    6  C   UNL     1      30.123  12.431  -7.339  1.00  0.00     0.037 C 
BRANCH   6   7
HETATM    7  C   UNL     1      28.872  12.410  -8.183  1.00  0.00    -0.030 C 
HETATM    8  C   UNL     1      28.706  11.797  -9.375  1.00  0.00    -0.027 C 
BRANCH   8   9
HETATM    9  C   UNL     1      29.728  10.990 -10.146  1.00  0.00     0.053 C 
BRANCH   9  10
HETATM   10  C   UNL     1      29.596   9.520  -9.836  1.00  0.00    -0.027 C 
HETATM   11  C   UNL     1      30.579   8.721  -9.385  1.00  0.00    -0.027 C 
BRANCH  11  12
HETATM   12  C   UNL     1      31.980   9.163  -9.051  1.00  0.00     0.053 C 
BRANCH  12  13
HETATM   13  C   UNL     1      32.779   9.415 -10.306  1.00  0.00    -0.027 C 
HETATM   14  C   UNL     1      33.774   8.650 -10.791  1.00  0.00    -0.027 C 
BRANCH  14  15
HETATM   15  C   UNL     1      34.330   7.406 -10.151  1.00  0.00     0.053 C 
BRANCH  15  16
HETATM   16  C   UNL     1      33.590   6.208 -10.704  1.00  0.00    -0.027 C 
HETATM   17  C   UNL     1      32.819   5.328 -10.035  1.00  0.00    -0.027 C 
BRANCH  17  18
HETATM   18  C   UNL     1      32.493   5.340  -8.564  1.00  0.00     0.053 C 
BRANCH  18  19
HETATM   19  C   UNL     1      30.998   5.373  -8.350  1.00  0.00    -0.027 C 
HETATM   20  C   UNL     1      30.338   5.634  -7.202  1.00  0.00    -0.027 C 
BRANCH  20  21
HETATM   21  C   UNL     1      30.942   6.008  -5.871  1.00  0.00     0.053 C 
BRANCH  21  22
HETATM   22  C   UNL     1      31.004   7.510  -5.712  1.00  0.00    -0.027 C 
HETATM   23  C   UNL     1      32.089   8.254  -5.422  1.00  0.00    -0.031 C 
BRANCH  23  24
HETATM   24  C   UNL     1      33.485   7.746  -5.172  1.00  0.00     0.022 C 
HETATM   25  C   UNL     1      34.322   7.691  -6.443  1.00  0.00     0.009 C 
ENDBRANCH  23  24
ENDBRANCH  21  22
ENDBRANCH  20  21
ENDBRANCH  18  19
ENDBRANCH  17  18
ENDBRANCH  15  16
ENDBRANCH  14  15
ENDBRANCH  12  13
ENDBRANCH  11  12
ENDBRANCH   9  10
ENDBRANCH   8   9
ENDBRANCH   6   7
ENDBRANCH   5   6
ENDBRANCH   3   5
ENDBRANCH   1   3
TORSDOF 15
ENDMDL
MODEL 8
REMARK VINA RESULT:      -5.9     27.167     29.385
REMARK  15 active torsions:
REMARK  status: ('A' for Active; 'I' for Inactive)
REMARK    1  A    between atoms: O_1  and  C_23 
REMARK    2  A    between atoms: C_3  and  C_7 
REMARK    3  A    between atoms: C_3  and  C_8 
REMARK    4  A    between atoms: C_4  and  C_10 
REMARK    5  A    between atoms: C_4  and  C_11 
REMARK    6  A    between atoms: C_5  and  C_12 
REMARK    7  A    between atoms: C_5  and  C_13 
REMARK    8  A    between atoms: C_6  and  C_15 
REMARK    9  A    between atoms: C_6  and  C_16 
REMARK   10  A    between atoms: C_7  and  C_23 
REMARK   11  A    between atoms: C_9  and  C_17 
REMARK   12  A    between atoms: C_9  and  C_18 
REMARK   13  A    between atoms: C_14  and  C_19 
REMARK   14  A    between atoms: C_14  and  C_20 
REMARK   15  A    between atoms: C_21  and  C_22 
ROOT
HETATM    1  O   UNL     1      28.540  12.407 -18.082  1.00  0.00    -0.776 OA
HETATM    2  H   UNL     1      27.821  12.297 -17.446  1.00  0.00     0.167 HD
ENDROOT
BRANCH   1   3
HETATM    3  C   UNL     1      28.494  11.835 -19.304  1.00  0.00     0.139 C 
HETATM    4  O   UNL     1      28.077  10.692 -19.430  1.00  0.00    -0.650 OA
BRANCH   3   5
HETATM    5  C   UNL     1      28.952  12.608 -20.508  1.00  0.00     0.113 C 
BRANCH   5   6
HETATM    6  C   UNL     1      30.099  11.882 -21.221  1.00  0.00     0.037 C 
BRANCH   6   7
HETATM    7  C   UNL     1      31.286  11.729 -20.300  1.00  0.00    -0.030 C 
HETATM    8  C   UNL     1      31.886  10.577 -19.933  1.00  0.00    -0.027 C 
BRANCH   8   9
HETATM    9  C   UNL     1      31.516   9.171 -20.353  1.00  0.00     0.053 C 
BRANCH   9  10
HETATM   10  C   UNL     1      32.587   8.574 -21.231  1.00  0.00    -0.027 C 
HETATM   11  C   UNL     1      33.470   7.629 -20.860  1.00  0.00    -0.027 C 
BRANCH  11  12
HETATM   12  C   UNL     1      33.513   6.952 -19.515  1.00  0.00     0.053 C 
BRANCH  12  13
HETATM   13  C   UNL     1      32.549   5.793 -19.465  1.00  0.00    -0.027 C 
HETATM   14  C   UNL     1      31.442   5.702 -18.705  1.00  0.00    -0.027 C 
BRANCH  14  15
HETATM   15  C   UNL     1      30.964   6.724 -17.708  1.00  0.00     0.053 C 
BRANCH  15  16
HETATM   16  C   UNL     1      30.401   5.998 -16.507  1.00  0.00    -0.027 C 
HETATM   17  C   UNL     1      31.079   5.364 -15.529  1.00  0.00    -0.027 C 
BRANCH  17  18
HETATM   18  C   UNL     1      32.574   5.244 -15.390  1.00  0.00     0.053 C 
BRANCH  18  19
HETATM   19  C   UNL     1      33.098   6.245 -14.386  1.00  0.00    -0.027 C 
HETATM   20  C   UNL     1      33.905   7.299 -14.623  1.00  0.00    -0.027 C 
BRANCH  20  21
HETATM   21  C   UNL     1      34.431   7.760 -15.960  1.00  0.00     0.053 C 
BRANCH  21  22
HETATM   22  C   UNL     1      33.589   8.888 -16.510  1.00  0.00    -0.027 C 
HETATM   23  C   UNL     1      34.001   9.910 -17.285  1.00  0.00    -0.031 C 
BRANCH  23  24
HETATM   24  C   UNL     1      35.407  10.165 -17.761  1.00  0.00     0.022 C 
HETATM   25  C   UNL     1      35.452  10.708 -19.183  1.00  0.00     0.009 C 
ENDBRANCH  23  24
ENDBRANCH  21  22
ENDBRANCH  20  21
ENDBRANCH  18  19
ENDBRANCH  17  18
ENDBRANCH  15  16
ENDBRANCH  14  15
ENDBRANCH  12  13
ENDBRANCH  11  12
ENDBRANCH   9  10
ENDBRANCH   8   9
ENDBRANCH   6   7
ENDBRANCH   5   6
ENDBRANCH   3   5
ENDBRANCH   1   3
TORSDOF 15
ENDMDL
MODEL 9
REMARK VINA RESULT:      -5.9     26.825     28.881
REMARK  15 active torsions:
REMARK  status: ('A' for Active; 'I' for Inactive)
REMARK    1  A    between atoms: O_1  and  C_23 
REMARK    2  A    between atoms: C_3  and  C_7 
REMARK    3  A    between atoms: C_3  and  C_8 
REMARK    4  A    between atoms: C_4  and  C_10 
REMARK    5  A    between atoms: C_4  and  C_11 
REMARK    6  A    between atoms: C_5  and  C_12 
REMARK    7  A    between atoms: C_5  and  C_13 
REMARK    8  A    between atoms: C_6  and  C_15 
REMARK    9  A    between atoms: C_6  and  C_16 
REMARK   10  A    between atoms: C_7  and  C_23 
REMARK   11  A    between atoms: C_9  and  C_17 
REMARK   12  A    between atoms: C_9  and  C_18 
REMARK   13  A    between atoms: C_14  and  C_19 
REMARK   14  A    between atoms: C_14  and  C_20 
REMARK   15  A    between atoms: C_21  and  C_22 
ROOT
HETATM    1  O   UNL     1      31.165   9.743 -21.039  1.00  0.00    -0.776 OA
HETATM    2  H   UNL     1      32.045   9.350 -21.116  1.00  0.00     0.167 HD
ENDROOT
BRANCH   1   3
HETATM    3  C   UNL     1      30.348   9.445 -20.006  1.00  0.00     0.139 C 
HETATM    4  O   UNL     1      29.197   9.090 -20.218  1.00  0.00    -0.650 OA
BRANCH   3   5
HETATM    5  C   UNL     1      30.859   9.547 -18.597  1.00  0.00     0.113 C 
BRANCH   5   6
HETATM    6  C   UNL     1      32.275  10.135 -18.570  1.00  0.00     0.037 C 
BRANCH   6   7
HETATM    7  C   UNL     1      33.236   9.177 -17.908  1.00  0.00    -0.030 C 
HETATM    8  C   UNL     1      34.093   8.333 -18.522  1.00  0.00    -0.027 C 
BRANCH   8   9
HETATM    9  C   UNL     1      34.295   8.145 -20.010  1.00  0.00     0.053 C 
BRANCH   9  10
HETATM   10  C   UNL     1      34.328   6.681 -20.366  1.00  0.00    -0.027 C 
HETATM   11  C   UNL     1      33.255   5.907 -20.609  1.00  0.00    -0.027 C 
BRANCH  11  12
HETATM   12  C   UNL     1      31.824   6.377 -20.625  1.00  0.00     0.053 C 
BRANCH  12  13
HETATM   13  C   UNL     1      30.924   5.389 -19.926  1.00  0.00    -0.027 C 
HETATM   14  C   UNL     1      30.770   5.244 -18.597  1.00  0.00    -0.027 C 
BRANCH  14  15
HETATM   15  C   UNL     1      31.506   6.010 -17.530  1.00  0.00     0.053 C 
BRANCH  15  16
HETATM   16  C   UNL     1      32.610   5.133 -16.982  1.00  0.00    -0.027 C 
HETATM   17  C   UNL     1      33.459   5.404 -15.971  1.00  0.00    -0.027 C 
BRANCH  17  18
HETATM   18  C   UNL     1      33.498   6.650 -15.125  1.00  0.00     0.053 C 
BRANCH  18  19
HETATM   19  C   UNL     1      32.349   6.664 -14.144  1.00  0.00    -0.027 C 
HETATM   20  C   UNL     1      31.375   7.591 -14.034  1.00  0.00    -0.027 C 
BRANCH  20  21
HETATM   21  C   UNL     1      31.173   8.806 -14.904  1.00  0.00     0.053 C 
BRANCH  21  22
HETATM   22  C   UNL     1      29.749   9.304 -14.811  1.00  0.00    -0.027 C 
HETATM   23  C   UNL     1      29.297  10.540 -15.100  1.00  0.00    -0.031 C 
BRANCH  23  24
HETATM   24  C   UNL     1      30.123  11.711 -15.565  1.00  0.00     0.022 C 
HETATM   25  C   UNL     1      29.474  12.459 -16.723  1.00  0.00     0.009 C 
ENDBRANCH  23  24
ENDBRANCH  21  22
ENDBRANCH  20  21
ENDBRANCH  18  19
ENDBRANCH  17  18
ENDBRANCH  15  16
ENDBRANCH  14  15
ENDBRANCH  12  13
ENDBRANCH  11  12
ENDBRANCH   9  10
ENDBRANCH   8   9
ENDBRANCH   6   7
ENDBRANCH   5   6
ENDBRANCH   3   5
ENDBRANCH   1   3
TORSDOF 15
ENDMDL
MODEL 10
REMARK VINA RESULT:      -5.9     27.204     29.811
REMARK  15 active torsions:
REMARK  status: ('A' for Active; 'I' for Inactive)
REMARK    1  A    between atoms: O_1  and  C_23 
REMARK    2  A    between atoms: C_3  and  C_7 
REMARK    3  A    between atoms: C_3  and  C_8 
REMARK    4  A    between atoms: C_4  and  C_10 
REMARK    5  A    between atoms: C_4  and  C_11 
REMARK    6  A    between atoms: C_5  and  C_12 
REMARK    7  A    between atoms: C_5  and  C_13 
REMARK    8  A    between atoms: C_6  and  C_15 
REMARK    9  A    between atoms: C_6  and  C_16 
REMARK   10  A    between atoms: C_7  and  C_23 
REMARK   11  A    between atoms: C_9  and  C_17 
REMARK   12  A    between atoms: C_9  and  C_18 
REMARK   13  A    between atoms: C_14  and  C_19 
REMARK   14  A    between atoms: C_14  and  C_20 
REMARK   15  A    between atoms: C_21  and  C_22 
ROOT
HETATM    1  O   UNL     1      33.257   4.154  -6.350  1.00  0.00    -0.776 OA
HETATM    2  H   UNL     1      32.910   3.326  -5.991  1.00  0.00     0.167 HD
ENDROOT
BRANCH   1   3
HETATM    3  C   UNL     1      32.507   4.944  -7.148  1.00  0.00     0.139 C 
HETATM    4  O   UNL     1      32.932   5.291  -8.240  1.00  0.00    -0.650 OA
BRANCH   3   5
HETATM    5  C   UNL     1      31.149   5.392  -6.689  1.00  0.00     0.113 C 
BRANCH   5   6
HETATM    6  C   UNL     1      30.977   6.903  -6.882  1.00  0.00     0.037 C 
BRANCH   6   7
HETATM    7  C   UNL     1      30.220   7.505  -5.723  1.00  0.00    -0.030 C 
HETATM    8  C   UNL     1      30.632   8.507  -4.917  1.00  0.00    -0.027 C 
BRANCH   8   9
HETATM    9  C   UNL     1      31.942   9.263  -4.981  1.00  0.00     0.053 C 
BRANCH   9  10
HETATM   10  C   UNL     1      32.943   8.683  -4.015  1.00  0.00    -0.027 C 
HETATM   11  C   UNL     1      33.999   7.917  -4.343  1.00  0.00    -0.027 C 
BRANCH  11  12
HETATM   12  C   UNL     1      34.407   7.545  -5.744  1.00  0.00     0.053 C 
BRANCH  12  13
HETATM   13  C   UNL     1      35.112   8.693  -6.422  1.00  0.00    -0.027 C 
HETATM   14  C   UNL     1      34.707   9.343  -7.529  1.00  0.00    -0.027 C 
BRANCH  14  15
HETATM   15  C   UNL     1      33.486   9.023  -8.349  1.00  0.00     0.053 C 
BRANCH  15  16
HETATM   16  C   UNL     1      33.919   8.255  -9.578  1.00  0.00    -0.027 C 
HETATM   17  C   UNL     1      33.171   7.904 -10.643  1.00  0.00    -0.027 C 
BRANCH  17  18
HETATM   18  C   UNL     1      31.715   8.214 -10.873  1.00  0.00     0.053 C 
BRANCH  18  19
HETATM   19  C   UNL     1      30.856   7.015 -10.543  1.00  0.00    -0.027 C 
HETATM   20  C   UNL     1      30.442   6.046 -11.385  1.00  0.00    -0.027 C 
BRANCH  20  21
HETATM   21  C   UNL     1      30.785   5.902 -12.847  1.00  0.00     0.053 C 
BRANCH  21  22
HETATM   22  C   UNL     1      32.147   5.271 -13.020  1.00  0.00    -0.027 C 
HETATM   23  C   UNL     1      33.135   5.676 -13.841  1.00  0.00    -0.031 C 
BRANCH  23  24
HETATM   24  C   UNL     1      33.091   6.847 -14.788  1.00  0.00     0.022 C 
HETATM   25  C   UNL     1      33.662   8.118 -14.172  1.00  0.00     0.009 C 
ENDBRANCH  23  24
ENDBRANCH  21  22
ENDBRANCH  20  21
ENDBRANCH  18  19
ENDBRANCH  17  18
ENDBRANCH  15  16
ENDBRANCH  14  15
ENDBRANCH  12  13
ENDBRANCH  11  12
ENDBRANCH   9  10
ENDBRANCH   8   9
ENDBRANCH   6   7
ENDBRANCH   5   6
ENDBRANCH   3   5
ENDBRANCH   1   3
TORSDOF 15
ENDMDL
MODEL 11
REMARK VINA RESULT:      -5.9     27.871     30.640
REMARK  15 active torsions:
REMARK  status: ('A' for Active; 'I' for Inactive)
REMARK    1  A    between atoms: O_1  and  C_23 
REMARK    2  A    between atoms: C_3  and  C_7 
REMARK    3  A    between atoms: C_3  and  C_8 
REMARK    4  A    between atoms: C_4  and  C_10 
REMARK    5  A    between atoms: C_4  and  C_11 
REMARK    6  A    between atoms: C_5  and  C_12 
REMARK    7  A    between atoms: C_5  and  C_13 
REMARK    8  A    between atoms: C_6  and  C_15 
REMARK    9  A    between atoms: C_6  and  C_16 
REMARK   10  A    between atoms: C_7  and  C_23 
REMARK   11  A    between atoms: C_9  and  C_17 
REMARK   12  A    between atoms: C_9  and  C_18 
REMARK   13  A    between atoms: C_14  and  C_19 
REMARK   14  A    between atoms: C_14  and  C_20 
REMARK   15  A    between atoms: C_21  and  C_22 
ROOT
HETATM    1  O   UNL     1      32.191   5.039  -9.743  1.00  0.00    -0.776 OA
HETATM    2  H   UNL     1      32.345   5.913  -9.358  1.00  0.00     0.167 HD
ENDROOT
BRANCH   1   3
HETATM    3  C   UNL     1      32.095   4.866 -11.079  1.00  0.00     0.139 C 
HETATM    4  O   UNL     1      33.043   4.417 -11.708  1.00  0.00    -0.650 OA
BRANCH   3   5
HETATM    5  C   UNL     1      30.820   5.222 -11.788  1.00  0.00     0.113 C 
BRANCH   5   6
HETATM    6  C   UNL     1      31.085   5.545 -13.263  1.00  0.00     0.037 C 
BRANCH   6   7
HETATM    7  C   UNL     1      31.040   7.035 -13.498  1.00  0.00    -0.030 C 
HETATM    8  C   UNL     1      32.091   7.860 -13.688  1.00  0.00    -0.027 C 
BRANCH   8   9
HETATM    9  C   UNL     1      33.559   7.492 -13.710  1.00  0.00     0.053 C 
BRANCH   9  10
HETATM   10  C   UNL     1      33.988   7.075 -15.094  1.00  0.00    -0.027 C 
HETATM   11  C   UNL     1      34.696   7.826 -15.956  1.00  0.00    -0.027 C 
BRANCH  11  12
HETATM   12  C   UNL     1      35.243   9.201 -15.673  1.00  0.00     0.053 C 
BRANCH  12  13
HETATM   13  C   UNL     1      34.129  10.214 -15.583  1.00  0.00    -0.027 C 
HETATM   14  C   UNL     1      33.105  10.361 -16.445  1.00  0.00    -0.027 C 
BRANCH  14  15
HETATM   15  C   UNL     1      32.889   9.571 -17.708  1.00  0.00     0.053 C 
BRANCH  15  16
HETATM   16  C   UNL     1      31.434   9.162 -17.777  1.00  0.00    -0.027 C 
HETATM   17  C   UNL     1      30.921   7.915 -17.754  1.00  0.00    -0.027 C 
BRANCH  17  18
HETATM   18  C   UNL     1      31.683   6.621 -17.634  1.00  0.00     0.053 C 
BRANCH  18  19
HETATM   19  C   UNL     1      30.855   5.466 -18.147  1.00  0.00    -0.027 C 
HETATM   20  C   UNL     1      30.685   5.084 -19.430  1.00  0.00    -0.027 C 
BRANCH  20  21
HETATM   21  C   UNL     1      31.328   5.689 -20.653  1.00  0.00     0.053 C 
BRANCH  21  22
HETATM   22  C   UNL     1      32.682   5.069 -20.911  1.00  0.00    -0.027 C 
HETATM   23  C   UNL     1      33.888   5.604 -20.639  1.00  0.00    -0.031 C 
BRANCH  23  24
HETATM   24  C   UNL     1      34.154   6.956 -20.030  1.00  0.00     0.022 C 
HETATM   25  C   UNL     1      34.645   7.971 -21.055  1.00  0.00     0.009 C 
ENDBRANCH  23  24
ENDBRANCH  21  22
ENDBRANCH  20  21
ENDBRANCH  18  19
ENDBRANCH  17  18
ENDBRANCH  15  16
ENDBRANCH  14  15
ENDBRANCH  12  13
ENDBRANCH  11  12
ENDBRANCH   9  10
ENDBRANCH   8   9
ENDBRANCH   6   7
ENDBRANCH   5   6
ENDBRANCH   3   5
ENDBRANCH   1   3
TORSDOF 15
ENDMDL
MODEL 12
REMARK VINA RESULT:      -5.8     25.886     27.715
REMARK  15 active torsions:
REMARK  status: ('A' for Active; 'I' for Inactive)
REMARK    1  A    between atoms: O_1  and  C_23 
REMARK    2  A    between atoms: C_3  and  C_7 
REMARK    3  A    between atoms: C_3  and  C_8 
REMARK    4  A    between atoms: C_4  and  C_10 
REMARK    5  A    between atoms: C_4  and  C_11 
REMARK    6  A    between atoms: C_5  and  C_12 
REMARK    7  A    between atoms: C_5  and  C_13 
REMARK    8  A    between atoms: C_6  and  C_15 
REMARK    9  A    between atoms: C_6  and  C_16 
REMARK   10  A    between atoms: C_7  and  C_23 
REMARK   11  A    between atoms: C_9  and  C_17 
REMARK   12  A    between atoms: C_9  and  C_18 
REMARK   13  A    between atoms: C_14  and  C_19 
REMARK   14  A    between atoms: C_14  and  C_20 
REMARK   15  A    between atoms: C_21  and  C_22 
ROOT
HETATM    1  O   UNL     1      28.409  10.264 -14.042  1.00  0.00    -0.776 OA
HETATM    2  H   UNL     1      27.528  10.071 -13.692  1.00  0.00     0.167 HD
ENDROOT
BRANCH   1   3
HETATM    3  C   UNL     1      28.825  11.534 -14.239  1.00  0.00     0.139 C 
HETATM    4  O   UNL     1      28.119  12.322 -14.851  1.00  0.00    -0.650 OA
BRANCH   3   5
HETATM    5  C   UNL     1      30.156  11.974 -13.700  1.00  0.00     0.113 C 
BRANCH   5   6
HETATM    6  C   UNL     1      30.265  11.677 -12.200  1.00  0.00     0.037 C 
BRANCH   6   7
HETATM    7  C   UNL     1      29.391  12.619 -11.406  1.00  0.00    -0.030 C 
HETATM    8  C   UNL     1      28.738  12.346 -10.256  1.00  0.00    -0.027 C 
BRANCH   8   9
HETATM    9  C   UNL     1      28.723  11.039  -9.492  1.00  0.00     0.053 C 
BRANCH   9  10
HETATM   10  C   UNL     1      29.488  11.165  -8.199  1.00  0.00    -0.027 C 
HETATM   11  C   UNL     1      30.607  10.491  -7.879  1.00  0.00    -0.027 C 
BRANCH  11  12
HETATM   12  C   UNL     1      31.335   9.528  -8.780  1.00  0.00     0.053 C 
BRANCH  12  13
HETATM   13  C   UNL     1      30.823   8.122  -8.590  1.00  0.00    -0.027 C 
HETATM   14  C   UNL     1      31.567   7.005  -8.478  1.00  0.00    -0.027 C 
BRANCH  14  15
HETATM   15  C   UNL     1      33.068   6.926  -8.570  1.00  0.00     0.053 C 
BRANCH  15  16
HETATM   16  C   UNL     1      33.435   6.249  -9.872  1.00  0.00    -0.027 C 
HETATM   17  C   UNL     1      34.184   6.741 -10.879  1.00  0.00    -0.027 C 
BRANCH  17  18
HETATM   18  C   UNL     1      34.855   8.088 -10.939  1.00  0.00     0.053 C 
BRANCH  18  19
HETATM   19  C   UNL     1      33.842   9.177 -11.205  1.00  0.00    -0.027 C 
HETATM   20  C   UNL     1      33.244   9.474 -12.377  1.00  0.00    -0.027 C 
BRANCH  20  21
HETATM   21  C   UNL     1      33.405   8.749 -13.690  1.00  0.00     0.053 C 
BRANCH  21  22
HETATM   22  C   UNL     1      32.113   8.760 -14.473  1.00  0.00    -0.027 C 
HETATM   23  C   UNL     1      31.109   7.865 -14.400  1.00  0.00    -0.031 C 
BRANCH  23  24
HETATM   24  C   UNL     1      31.062   6.637 -13.529  1.00  0.00     0.022 C 
HETATM   25  C   UNL     1      30.635   6.951 -12.101  1.00  0.00     0.009 C 
ENDBRANCH  23  24
ENDBRANCH  21  22
ENDBRANCH  20  21
ENDBRANCH  18  19
ENDBRANCH  17  18
ENDBRANCH  15  16
ENDBRANCH  14  15
ENDBRANCH  12  13
ENDBRANCH  11  12
ENDBRANCH   9  10
ENDBRANCH   8   9
ENDBRANCH   6   7
ENDBRANCH   5   6
ENDBRANCH   3   5
ENDBRANCH   1   3
TORSDOF 15
ENDMDL
MODEL 13
REMARK VINA RESULT:      -5.8     26.988     29.287
REMARK  15 active torsions:
REMARK  status: ('A' for Active; 'I' for Inactive)
REMARK    1  A    between atoms: O_1  and  C_23 
REMARK    2  A    between atoms: C_3  and  C_7 
REMARK    3  A    between atoms: C_3  and  C_8 
REMARK    4  A    between atoms: C_4  and  C_10 
REMARK    5  A    between atoms: C_4  and  C_11 
REMARK    6  A    between atoms: C_5  and  C_12 
REMARK    7  A    between atoms: C_5  and  C_13 
REMARK    8  A    between atoms: C_6  and  C_15 
REMARK    9  A    between atoms: C_6  and  C_16 
REMARK   10  A    between atoms: C_7  and  C_23 
REMARK   11  A    between atoms: C_9  and  C_17 
REMARK   12  A    between atoms: C_9  and  C_18 
REMARK   13  A    between atoms: C_14  and  C_19 
REMARK   14  A    between atoms: C_14  and  C_20 
REMARK   15  A    between atoms: C_21  and  C_22 
ROOT
HETATM    1  O   UNL     1      28.037  11.164  -9.486  1.00  0.00    -0.776 OA
HETATM    2  H   UNL     1      27.184  10.870  -9.138  1.00  0.00     0.167 HD
ENDROOT
BRANCH   1   3
HETATM    3  C   UNL     1      29.087  10.320  -9.582  1.00  0.00     0.139 C 
HETATM    4  O   UNL     1      29.058   9.393 -10.379  1.00  0.00    -0.650 OA
BRANCH   3   5
HETATM    5  C   UNL     1      30.292  10.526  -8.709  1.00  0.00     0.113 C 
BRANCH   5   6
HETATM    6  C   UNL     1      31.581  10.185  -9.464  1.00  0.00     0.037 C 
BRANCH   6   7
HETATM    7  C   UNL     1      32.767  10.874  -8.833  1.00  0.00    -0.030 C 
HETATM    8  C   UNL     1      33.693  10.318  -8.024  1.00  0.00    -0.027 C 
BRANCH   8   9
HETATM    9  C   UNL     1      33.766   8.880  -7.558  1.00  0.00     0.053 C 
BRANCH   9  10
HETATM   10  C   UNL     1      34.390   8.790  -6.188  1.00  0.00    -0.027 C 
HETATM   11  C   UNL     1      34.507   7.672  -5.449  1.00  0.00    -0.027 C 
BRANCH  11  12
HETATM   12  C   UNL     1      34.086   6.292  -5.881  1.00  0.00     0.053 C 
BRANCH  12  13
HETATM   13  C   UNL     1      32.627   6.054  -5.578  1.00  0.00    -0.027 C 
HETATM   14  C   UNL     1      31.717   5.498  -6.399  1.00  0.00    -0.027 C 
BRANCH  14  15
HETATM   15  C   UNL     1      31.959   5.041  -7.813  1.00  0.00     0.053 C 
BRANCH  15  16
HETATM   16  C   UNL     1      31.515   6.137  -8.755  1.00  0.00    -0.027 C 
HETATM   17  C   UNL     1      32.183   6.642  -9.812  1.00  0.00    -0.027 C 
BRANCH  17  18
HETATM   18  C   UNL     1      33.535   6.217 -10.321  1.00  0.00     0.053 C 
BRANCH  18  19
HETATM   19  C   UNL     1      34.383   7.423 -10.654  1.00  0.00    -0.027 C 
HETATM   20  C   UNL     1      34.219   8.283 -11.680  1.00  0.00    -0.027 C 
BRANCH  20  21
HETATM   21  C   UNL     1      33.115   8.275 -12.707  1.00  0.00     0.053 C 
BRANCH  21  22
HETATM   22  C   UNL     1      33.580   7.629 -13.992  1.00  0.00    -0.027 C 
HETATM   23  C   UNL     1      33.301   6.384 -14.425  1.00  0.00    -0.031 C 
BRANCH  23  24
HETATM   24  C   UNL     1      32.474   5.349 -13.709  1.00  0.00     0.022 C 
HETATM   25  C   UNL     1      31.007   5.391 -14.116  1.00  0.00     0.009 C 
ENDBRANCH  23  24
ENDBRANCH  21  22
ENDBRANCH  20  21
ENDBRANCH  18  19
ENDBRANCH  17  18
ENDBRANCH  15  16
ENDBRANCH  14  15
ENDBRANCH  12  13
ENDBRANCH  11  12
ENDBRANCH   9  10
ENDBRANCH   8   9
ENDBRANCH   6   7
ENDBRANCH   5   6
ENDBRANCH   3   5
ENDBRANCH   1   3
TORSDOF 15
ENDMDL
MODEL 14
REMARK VINA RESULT:      -5.8     26.180     28.181
REMARK  15 active torsions:
REMARK  status: ('A' for Active; 'I' for Inactive)
REMARK    1  A    between atoms: O_1  and  C_23 
REMARK    2  A    between atoms: C_3  and  C_7 
REMARK    3  A    between atoms: C_3  and  C_8 
REMARK    4  A    between atoms: C_4  and  C_10 
REMARK    5  A    between atoms: C_4  and  C_11 
REMARK    6  A    between atoms: C_5  and  C_12 
REMARK    7  A    between atoms: C_5  and  C_13 
REMARK    8  A    between atoms: C_6  and  C_15 
REMARK    9  A    between atoms: C_6  and  C_16 
REMARK   10  A    between atoms: C_7  and  C_23 
REMARK   11  A    between atoms: C_9  and  C_17 
REMARK   12  A    between atoms: C_9  and  C_18 
REMARK   13  A    between atoms: C_14  and  C_19 
REMARK   14  A    between atoms: C_14  and  C_20 
REMARK   15  A    between atoms: C_21  and  C_22 
ROOT
HETATM    1  O   UNL     1      28.716  13.558 -16.274  1.00  0.00    -0.776 OA
HETATM    2  H   UNL     1      29.414  14.224 -16.199  1.00  0.00     0.167 HD
ENDROOT
BRANCH   1   3
HETATM    3  C   UNL     1      28.894  12.298 -15.825  1.00  0.00     0.139 C 
HETATM    4  O   UNL     1      28.267  11.899 -14.853  1.00  0.00    -0.650 OA
BRANCH   3   5
HETATM    5  C   UNL     1      29.861  11.386 -16.525  1.00  0.00     0.113 C 
BRANCH   5   6
HETATM    6  C   UNL     1      30.030  11.792 -17.994  1.00  0.00     0.037 C 
BRANCH   6   7
HETATM    7  C   UNL     1      29.048  11.049 -18.868  1.00  0.00    -0.030 C 
HETATM    8  C   UNL     1      29.224   9.839 -19.441  1.00  0.00    -0.027 C 
BRANCH   8   9
HETATM    9  C   UNL     1      30.440   8.942 -19.345  1.00  0.00     0.053 C 
BRANCH   9  10
HETATM   10  C   UNL     1      31.595   9.520 -20.123  1.00  0.00    -0.027 C 
HETATM   11  C   UNL     1      32.890   9.190 -19.968  1.00  0.00    -0.027 C 
BRANCH  11  12
HETATM   12  C   UNL     1      33.417   8.138 -19.027  1.00  0.00     0.053 C 
BRANCH  12  13
HETATM   13  C   UNL     1      33.759   6.872 -19.773  1.00  0.00    -0.027 C 
HETATM   14  C   UNL     1      33.117   5.692 -19.688  1.00  0.00    -0.027 C 
BRANCH  14  15
HETATM   15  C   UNL     1      31.949   5.380 -18.791  1.00  0.00     0.053 C 
BRANCH  15  16
HETATM   16  C   UNL     1      32.479   5.016 -17.422  1.00  0.00    -0.027 C 
HETATM   17  C   UNL     1      31.877   5.189 -16.227  1.00  0.00    -0.027 C 
BRANCH  17  18
HETATM   18  C   UNL     1      30.512   5.772 -15.973  1.00  0.00     0.053 C 
BRANCH  18  19
HETATM   19  C   UNL     1      30.550   7.280 -16.071  1.00  0.00    -0.027 C 
HETATM   20  C   UNL     1      31.164   8.141 -15.235  1.00  0.00    -0.027 C 
BRANCH  20  21
HETATM   21  C   UNL     1      32.008   7.797 -14.032  1.00  0.00     0.053 C 
BRANCH  21  22
HETATM   22  C   UNL     1      31.210   7.939 -12.757  1.00  0.00    -0.027 C 
HETATM   23  C   UNL     1      30.650   6.950 -12.032  1.00  0.00    -0.031 C 
BRANCH  23  24
HETATM   24  C   UNL     1      30.682   5.478 -12.347  1.00  0.00     0.022 C 
HETATM   25  C   UNL     1      31.929   4.792 -11.803  1.00  0.00     0.009 C 
ENDBRANCH  23  24
ENDBRANCH  21  22
ENDBRANCH  20  21
ENDBRANCH  18  19
ENDBRANCH  17  18
ENDBRANCH  15  16
ENDBRANCH  14  15
ENDBRANCH  12  13
ENDBRANCH  11  12
ENDBRANCH   9  10
ENDBRANCH   8   9
ENDBRANCH   6   7
ENDBRANCH   5   6
ENDBRANCH   3   5
ENDBRANCH   1   3
TORSDOF 15
ENDMDL
MODEL 15
REMARK VINA RESULT:      -5.8     27.743     29.451
REMARK  15 active torsions:
REMARK  status: ('A' for Active; 'I' for Inactive)
REMARK    1  A    between atoms: O_1  and  C_23 
REMARK    2  A    between atoms: C_3  and  C_7 
REMARK    3  A    between atoms: C_3  and  C_8 
REMARK    4  A    between atoms: C_4  and  C_10 
REMARK    5  A    between atoms: C_4  and  C_11 
REMARK    6  A    between atoms: C_5  and  C_12 
REMARK    7  A    between atoms: C_5  and  C_13 
REMARK    8  A    between atoms: C_6  and  C_15 
REMARK    9  A    between atoms: C_6  and  C_16 
REMARK   10  A    between atoms: C_7  and  C_23 
REMARK   11  A    between atoms: C_9  and  C_17 
REMARK   12  A    between atoms: C_9  and  C_18 
REMARK   13  A    between atoms: C_14  and  C_19 
REMARK   14  A    between atoms: C_14  and  C_20 
REMARK   15  A    between atoms: C_21  and  C_22 
ROOT
HETATM    1  O   UNL     1      28.381  11.797 -24.498  1.00  0.00    -0.776 OA
HETATM    2  H   UNL     1      27.664  11.617 -25.122  1.00  0.00     0.167 HD
ENDROOT
BRANCH   1   3
HETATM    3  C   UNL     1      28.957  10.806 -23.784  1.00  0.00     0.139 C 
HETATM    4  O   UNL     1      28.820  10.767 -22.569  1.00  0.00    -0.650 OA
BRANCH   3   5
HETATM    5  C   UNL     1      29.763   9.751 -24.487  1.00  0.00     0.113 C 
BRANCH   5   6
HETATM    6  C   UNL     1      30.798   9.133 -23.541  1.00  0.00     0.037 C 
BRANCH   6   7
HETATM    7  C   UNL     1      31.031   7.680 -23.882  1.00  0.00    -0.030 C 
HETATM    8  C   UNL     1      30.951   6.626 -23.043  1.00  0.00    -0.027 C 
BRANCH   8   9
HETATM    9  C   UNL     1      30.612   6.645 -21.568  1.00  0.00     0.053 C 
BRANCH   9  10
HETATM   10  C   UNL     1      30.951   5.326 -20.922  1.00  0.00    -0.027 C 
HETATM   11  C   UNL     1      32.191   4.853 -20.706  1.00  0.00    -0.027 C 
BRANCH  11  12
HETATM   12  C   UNL     1      33.472   5.583 -21.018  1.00  0.00     0.053 C 
BRANCH  12  13
HETATM   13  C   UNL     1      33.882   6.466 -19.866  1.00  0.00    -0.027 C 
HETATM   14  C   UNL     1      33.877   7.812 -19.845  1.00  0.00    -0.027 C 
BRANCH  14  15
HETATM   15  C   UNL     1      33.506   8.716 -20.992  1.00  0.00     0.053 C 
BRANCH  15  16
HETATM   16  C   UNL     1      33.191  10.088 -20.440  1.00  0.00    -0.027 C 
HETATM   17  C   UNL     1      32.092  10.477 -19.763  1.00  0.00    -0.027 C 
BRANCH  17  18
HETATM   18  C   UNL     1      30.913   9.624 -19.376  1.00  0.00     0.053 C 
BRANCH  18  19
HETATM   19  C   UNL     1      30.872   9.418 -17.879  1.00  0.00    -0.027 C 
HETATM   20  C   UNL     1      30.834   8.247 -17.212  1.00  0.00    -0.027 C 
BRANCH  20  21
HETATM   21  C   UNL     1      30.880   6.860 -17.805  1.00  0.00     0.053 C 
BRANCH  21  22
HETATM   22  C   UNL     1      30.701   5.811 -16.733  1.00  0.00    -0.027 C 
HETATM   23  C   UNL     1      31.665   5.082 -16.136  1.00  0.00    -0.031 C 
BRANCH  23  24
HETATM   24  C   UNL     1      33.143   5.141 -16.425  1.00  0.00     0.022 C 
HETATM   25  C   UNL     1      33.845   6.244 -15.643  1.00  0.00     0.009 C 
ENDBRANCH  23  24
ENDBRANCH  21  22
ENDBRANCH  20  21
ENDBRANCH  18  19
ENDBRANCH  17  18
ENDBRANCH  15  16
ENDBRANCH  14  15
ENDBRANCH  12  13
ENDBRANCH  11  12
ENDBRANCH   9  10
ENDBRANCH   8   9
ENDBRANCH   6   7
ENDBRANCH   5   6
ENDBRANCH   3   5
ENDBRANCH   1   3
TORSDOF 15
ENDMDL
MODEL 16
REMARK VINA RESULT:      -5.7     26.546     28.189
REMARK  15 active torsions:
REMARK  status: ('A' for Active; 'I' for Inactive)
REMARK    1  A    between atoms: O_1  and  C_23 
REMARK    2  A    between atoms: C_3  and  C_7 
REMARK    3  A    between atoms: C_3  and  C_8 
REMARK    4  A    between atoms: C_4  and  C_10 
REMARK    5  A    between atoms: C_4  and  C_11 
REMARK    6  A    between atoms: C_5  and  C_12 
REMARK    7  A    between atoms: C_5  and  C_13 
REMARK    8  A    between atoms: C_6  and  C_15 
REMARK    9  A    between atoms: C_6  and  C_16 
REMARK   10  A    between atoms: C_7  and  C_23 
REMARK   11  A    between atoms: C_9  and  C_17 
REMARK   12  A    between atoms: C_9  and  C_18 
REMARK   13  A    between atoms: C_14  and  C_19 
REMARK   14  A    between atoms: C_14  and  C_20 
REMARK   15  A    between atoms: C_21  and  C_22 
ROOT
HETATM    1  O   UNL     1      29.768  12.073  -8.254  1.00  0.00    -0.776 OA
HETATM    2  H   UNL     1      29.546  12.887  -7.781  1.00  0.00     0.167 HD
ENDROOT
BRANCH   1   3
HETATM    3  C   UNL     1      28.992  11.608  -9.256  1.00  0.00     0.139 C 
HETATM    4  O   UNL     1      28.313  10.604  -9.090  1.00  0.00    -0.650 OA
BRANCH   3   5
HETATM    5  C   UNL     1      28.963  12.329 -10.574  1.00  0.00     0.113 C 
BRANCH   5   6
HETATM    6  C   UNL     1      30.228  12.035 -11.387  1.00  0.00     0.037 C 
BRANCH   6   7
HETATM    7  C   UNL     1      29.981  10.917 -12.371  1.00  0.00    -0.030 C 
HETATM    8  C   UNL     1      30.633   9.737 -12.440  1.00  0.00    -0.027 C 
BRANCH   8   9
HETATM    9  C   UNL     1      31.760   9.253 -11.554  1.00  0.00     0.053 C 
BRANCH   9  10
HETATM   10  C   UNL     1      33.073   9.865 -11.973  1.00  0.00    -0.027 C 
HETATM   11  C   UNL     1      33.999   9.279 -12.753  1.00  0.00    -0.027 C 
BRANCH  11  12
HETATM   12  C   UNL     1      33.867   7.924 -13.399  1.00  0.00     0.053 C 
BRANCH  12  13
HETATM   13  C   UNL     1      33.877   8.041 -14.903  1.00  0.00    -0.027 C 
HETATM   14  C   UNL     1      32.804   8.042 -15.715  1.00  0.00    -0.027 C 
BRANCH  14  15
HETATM   15  C   UNL     1      31.369   7.876 -15.290  1.00  0.00     0.053 C 
BRANCH  15  16
HETATM   16  C   UNL     1      30.944   6.453 -15.576  1.00  0.00    -0.027 C 
HETATM   17  C   UNL     1      31.077   5.372 -14.781  1.00  0.00    -0.027 C 
BRANCH  17  18
HETATM   18  C   UNL     1      31.669   5.329 -13.397  1.00  0.00     0.053 C 
BRANCH  18  19
HETATM   19  C   UNL     1      30.656   5.776 -12.369  1.00  0.00    -0.027 C 
HETATM   20  C   UNL     1      30.766   5.715 -11.027  1.00  0.00    -0.027 C 
BRANCH  20  21
HETATM   21  C   UNL     1      31.955   5.234 -10.233  1.00  0.00     0.053 C 
BRANCH  21  22
HETATM   22  C   UNL     1      31.825   5.625  -8.779  1.00  0.00    -0.027 C 
HETATM   23  C   UNL     1      32.441   6.646  -8.151  1.00  0.00    -0.031 C 
BRANCH  23  24
HETATM   24  C   UNL     1      33.416   7.618  -8.763  1.00  0.00     0.022 C 
HETATM   25  C   UNL     1      34.205   8.390  -7.713  1.00  0.00     0.009 C 
ENDBRANCH  23  24
ENDBRANCH  21  22
ENDBRANCH  20  21
ENDBRANCH  18  19
ENDBRANCH  17  18
ENDBRANCH  15  16
ENDBRANCH  14  15
ENDBRANCH  12  13
ENDBRANCH  11  12
ENDBRANCH   9  10
ENDBRANCH   8   9
ENDBRANCH   6   7
ENDBRANCH   5   6
ENDBRANCH   3   5
ENDBRANCH   1   3
TORSDOF 15
ENDMDL
MODEL 17
REMARK VINA RESULT:      -5.7     26.574     29.178
REMARK  15 active torsions:
REMARK  status: ('A' for Active; 'I' for Inactive)
REMARK    1  A    between atoms: O_1  and  C_23 
REMARK    2  A    between atoms: C_3  and  C_7 
REMARK    3  A    between atoms: C_3  and  C_8 
REMARK    4  A    between atoms: C_4  and  C_10 
REMARK    5  A    between atoms: C_4  and  C_11 
REMARK    6  A    between atoms: C_5  and  C_12 
REMARK    7  A    between atoms: C_5  and  C_13 
REMARK    8  A    between atoms: C_6  and  C_15 
REMARK    9  A    between atoms: C_6  and  C_16 
REMARK   10  A    between atoms: C_7  and  C_23 
REMARK   11  A    between atoms: C_9  and  C_17 
REMARK   12  A    between atoms: C_9  and  C_18 
REMARK   13  A    between atoms: C_14  and  C_19 
REMARK   14  A    between atoms: C_14  and  C_20 
REMARK   15  A    between atoms: C_21  and  C_22 
ROOT
HETATM    1  O   UNL     1      30.641  11.760 -11.905  1.00  0.00    -0.776 OA
HETATM    2  H   UNL     1      31.565  11.613 -11.658  1.00  0.00     0.167 HD
ENDROOT
BRANCH   1   3
HETATM    3  C   UNL     1      29.681  10.861 -11.603  1.00  0.00     0.139 C 
HETATM    4  O   UNL     1      28.909  10.475 -12.470  1.00  0.00    -0.650 OA
BRANCH   3   5
HETATM    5  C   UNL     1      29.565  10.334 -10.201  1.00  0.00     0.113 C 
BRANCH   5   6
HETATM    6  C   UNL     1      30.353   9.029 -10.041  1.00  0.00     0.037 C 
BRANCH   6   7
HETATM    7  C   UNL     1      30.823   8.863  -8.616  1.00  0.00    -0.030 C 
HETATM    8  C   UNL     1      31.100   7.704  -7.981  1.00  0.00    -0.027 C 
BRANCH   8   9
HETATM    9  C   UNL     1      31.006   6.301  -8.542  1.00  0.00     0.053 C 
BRANCH   9  10
HETATM   10  C   UNL     1      32.376   5.690  -8.691  1.00  0.00    -0.027 C 
HETATM   11  C   UNL     1      33.063   5.572  -9.841  1.00  0.00    -0.027 C 
BRANCH  11  12
HETATM   12  C   UNL     1      32.613   6.083 -11.185  1.00  0.00     0.053 C 
BRANCH  12  13
HETATM   13  C   UNL     1      31.469   5.257 -11.718  1.00  0.00    -0.027 C 
HETATM   14  C   UNL     1      30.998   5.257 -12.980  1.00  0.00    -0.027 C 
BRANCH  14  15
HETATM   15  C   UNL     1      31.490   6.122 -14.110  1.00  0.00     0.053 C 
BRANCH  15  16
HETATM   16  C   UNL     1      32.671   5.436 -14.761  1.00  0.00    -0.027 C 
HETATM   17  C   UNL     1      33.807   6.000 -15.218  1.00  0.00    -0.027 C 
BRANCH  17  18
HETATM   18  C   UNL     1      34.183   7.458 -15.170  1.00  0.00     0.053 C 
BRANCH  18  19
HETATM   19  C   UNL     1      34.455   7.984 -16.560  1.00  0.00    -0.027 C 
HETATM   20  C   UNL     1      33.551   8.343 -17.494  1.00  0.00    -0.027 C 
BRANCH  20  21
HETATM   21  C   UNL     1      32.049   8.354 -17.350  1.00  0.00     0.053 C 
BRANCH  21  22
HETATM   22  C   UNL     1      31.384   7.866 -18.615  1.00  0.00    -0.027 C 
HETATM   23  C   UNL     1      31.039   6.600 -18.919  1.00  0.00    -0.031 C 
BRANCH  23  24
HETATM   24  C   UNL     1      31.261   5.380 -18.064  1.00  0.00     0.022 C 
HETATM   25  C   UNL     1      30.038   5.022 -17.230  1.00  0.00     0.009 C 
ENDBRANCH  23  24
ENDBRANCH  21  22
ENDBRANCH  20  21
ENDBRANCH  18  19
ENDBRANCH  17  18
ENDBRANCH  15  16
ENDBRANCH  14  15
ENDBRANCH  12  13
ENDBRANCH  11  12
ENDBRANCH   9  10
ENDBRANCH   8   9
ENDBRANCH   6   7
ENDBRANCH   5   6
ENDBRANCH   3   5
ENDBRANCH   1   3
TORSDOF 15
ENDMDL
MODEL 18
REMARK VINA RESULT:      -5.7     26.971     29.407
REMARK  15 active torsions:
REMARK  status: ('A' for Active; 'I' for Inactive)
REMARK    1  A    between atoms: O_1  and  C_23 
REMARK    2  A    between atoms: C_3  and  C_7 
REMARK    3  A    between atoms: C_3  and  C_8 
REMARK    4  A    between atoms: C_4  and  C_10 
REMARK    5  A    between atoms: C_4  and  C_11 
REMARK    6  A    between atoms: C_5  and  C_12 
REMARK    7  A    between atoms: C_5  and  C_13 
REMARK    8  A    between atoms: C_6  and  C_15 
REMARK    9  A    between atoms: C_6  and  C_16 
REMARK   10  A    between atoms: C_7  and  C_23 
REMARK   11  A    between atoms: C_9  and  C_17 
REMARK   12  A    between atoms: C_9  and  C_18 
REMARK   13  A    between atoms: C_14  and  C_19 
REMARK   14  A    between atoms: C_14  and  C_20 
REMARK   15  A    between atoms: C_21  and  C_22 
ROOT
HETATM    1  O   UNL     1      33.456  10.812 -19.363  1.00  0.00    -0.776 OA
HETATM    2  H   UNL     1      33.421  11.341 -20.171  1.00  0.00     0.167 HD
ENDROOT
BRANCH   1   3
HETATM    3  C   UNL     1      34.420   9.886 -19.168  1.00  0.00     0.139 C 
HETATM    4  O   UNL     1      35.587  10.156 -19.417  1.00  0.00    -0.650 OA
BRANCH   3   5
HETATM    5  C   UNL     1      34.055   8.528 -18.642  1.00  0.00     0.113 C 
BRANCH   5   6
HETATM    6  C   UNL     1      33.516   8.622 -17.210  1.00  0.00     0.037 C 
BRANCH   6   7
HETATM    7  C   UNL     1      34.579   8.224 -16.214  1.00  0.00    -0.030 C 
HETATM    8  C   UNL     1      34.687   7.041 -15.571  1.00  0.00    -0.027 C 
BRANCH   8   9
HETATM    9  C   UNL     1      33.774   5.840 -15.692  1.00  0.00     0.053 C 
BRANCH   9  10
HETATM   10  C   UNL     1      32.799   5.788 -14.543  1.00  0.00    -0.027 C 
HETATM   11  C   UNL     1      31.506   6.153 -14.594  1.00  0.00    -0.027 C 
BRANCH  11  12
HETATM   12  C   UNL     1      30.779   6.628 -15.825  1.00  0.00     0.053 C 
BRANCH  12  13
HETATM   13  C   UNL     1      30.212   5.463 -16.598  1.00  0.00    -0.027 C 
HETATM   14  C   UNL     1      30.538   5.097 -17.852  1.00  0.00    -0.027 C 
BRANCH  14  15
HETATM   15  C   UNL     1      31.504   5.809 -18.761  1.00  0.00     0.053 C 
BRANCH  15  16
HETATM   16  C   UNL     1      30.985   5.717 -20.179  1.00  0.00    -0.027 C 
HETATM   17  C   UNL     1      30.953   6.688 -21.114  1.00  0.00    -0.027 C 
BRANCH  17  18
HETATM   18  C   UNL     1      31.448   8.104 -20.973  1.00  0.00     0.053 C 
BRANCH  18  19
HETATM   19  C   UNL     1      30.289   9.065 -20.854  1.00  0.00    -0.027 C 
HETATM   20  C   UNL     1      29.787   9.611 -19.728  1.00  0.00    -0.027 C 
BRANCH  20  21
HETATM   21  C   UNL     1      30.302   9.431 -18.322  1.00  0.00     0.053 C 
BRANCH  21  22
HETATM   22  C   UNL     1      30.469  10.767 -17.635  1.00  0.00    -0.027 C 
HETATM   23  C   UNL     1      30.303  11.036 -16.325  1.00  0.00    -0.031 C 
BRANCH  23  24
HETATM   24  C   UNL     1      29.894  10.060 -15.253  1.00  0.00     0.022 C 
HETATM   25  C   UNL     1      28.712  10.558 -14.432  1.00  0.00     0.009 C 
ENDBRANCH  23  24
ENDBRANCH  21  22
ENDBRANCH  20  21
ENDBRANCH  18  19
ENDBRANCH  17  18
ENDBRANCH  15  16
ENDBRANCH  14  15
ENDBRANCH  12  13
ENDBRANCH  11  12
ENDBRANCH   9  10
ENDBRANCH   8   9
ENDBRANCH   6   7
ENDBRANCH   5   6
ENDBRANCH   3   5
ENDBRANCH   1   3
TORSDOF 15
ENDMDL
MODEL 19
REMARK VINA RESULT:      -5.7     27.053     28.678
REMARK  15 active torsions:
REMARK  status: ('A' for Active; 'I' for Inactive)
REMARK    1  A    between atoms: O_1  and  C_23 
REMARK    2  A    between atoms: C_3  and  C_7 
REMARK    3  A    between atoms: C_3  and  C_8 
REMARK    4  A    between atoms: C_4  and  C_10 
REMARK    5  A    between atoms: C_4  and  C_11 
REMARK    6  A    between atoms: C_5  and  C_12 
REMARK    7  A    between atoms: C_5  and  C_13 
REMARK    8  A    between atoms: C_6  and  C_15 
REMARK    9  A    between atoms: C_6  and  C_16 
REMARK   10  A    between atoms: C_7  and  C_23 
REMARK   11  A    between atoms: C_9  and  C_17 
REMARK   12  A    between atoms: C_9  and  C_18 
REMARK   13  A    between atoms: C_14  and  C_19 
REMARK   14  A    between atoms: C_14  and  C_20 
REMARK   15  A    between atoms: C_21  and  C_22 
ROOT
HETATM    1  O   UNL     1      29.639   9.344 -18.961  1.00  0.00    -0.776 OA
HETATM    2  H   UNL     1      30.370   9.105 -18.375  1.00  0.00     0.167 HD
ENDROOT
BRANCH   1   3
HETATM    3  C   UNL     1      29.807   9.428 -20.298  1.00  0.00     0.139 C 
HETATM    4  O   UNL     1      29.167  10.244 -20.946  1.00  0.00    -0.650 OA
BRANCH   3   5
HETATM    5  C   UNL     1      30.786   8.519 -20.985  1.00  0.00     0.113 C 
BRANCH   5   6
HETATM    6  C   UNL     1      30.730   7.106 -20.393  1.00  0.00     0.037 C 
BRANCH   6   7
HETATM    7  C   UNL     1      31.343   6.106 -21.343  1.00  0.00    -0.030 C 
HETATM    8  C   UNL     1      32.589   5.589 -21.286  1.00  0.00    -0.027 C 
BRANCH   8   9
HETATM    9  C   UNL     1      33.664   5.886 -20.262  1.00  0.00     0.053 C 
BRANCH   9  10
HETATM   10  C   UNL     1      34.105   7.325 -20.349  1.00  0.00    -0.027 C 
HETATM   11  C   UNL     1      34.274   8.159 -19.307  1.00  0.00    -0.027 C 
BRANCH  11  12
HETATM   12  C   UNL     1      34.108   7.790 -17.856  1.00  0.00     0.053 C 
BRANCH  12  13
HETATM   13  C   UNL     1      32.658   7.854 -17.446  1.00  0.00    -0.027 C 
HETATM   14  C   UNL     1      31.910   6.838 -16.977  1.00  0.00    -0.027 C 
BRANCH  14  15
HETATM   15  C   UNL     1      32.358   5.410 -16.812  1.00  0.00     0.053 C 
BRANCH  15  16
HETATM   16  C   UNL     1      33.019   5.267 -15.458  1.00  0.00    -0.027 C 
HETATM   17  C   UNL     1      32.447   5.370 -14.242  1.00  0.00    -0.027 C 
BRANCH  17  18
HETATM   18  C   UNL     1      30.995   5.634 -13.939  1.00  0.00     0.053 C 
BRANCH  18  19
HETATM   19  C   UNL     1      30.617   5.056 -12.595  1.00  0.00    -0.027 C 
HETATM   20  C   UNL     1      30.505   5.712 -11.422  1.00  0.00    -0.027 C 
BRANCH  20  21
HETATM   21  C   UNL     1      30.677   7.192 -11.187  1.00  0.00     0.053 C 
BRANCH  21  22
HETATM   22  C   UNL     1      32.128   7.531 -10.936  1.00  0.00    -0.027 C 
HETATM   23  C   UNL     1      32.882   8.429 -11.600  1.00  0.00    -0.031 C 
BRANCH  23  24
HETATM   24  C   UNL     1      32.444   9.284 -12.761  1.00  0.00     0.022 C 
HETATM   25  C   UNL     1      33.192   8.950 -14.046  1.00  0.00     0.009 C 
ENDBRANCH  23  24
ENDBRANCH  21  22
ENDBRANCH  20  21
ENDBRANCH  18  19
ENDBRANCH  17  18
ENDBRANCH  15  16
ENDBRANCH  14  15
ENDBRANCH  12  13
ENDBRANCH  11  12
ENDBRANCH   9  10
ENDBRANCH   8   9
ENDBRANCH   6   7
ENDBRANCH   5   6
ENDBRANCH   3   5
ENDBRANCH   1   3
TORSDOF 15
ENDMDL
MODEL 20
REMARK VINA RESULT:      -5.7     25.802     27.786
REMARK  15 active torsions:
REMARK  status: ('A' for Active; 'I' for Inactive)
REMARK    1  A    between atoms: O_1  and  C_23 
REMARK    2  A    between atoms: C_3  and  C_7 
REMARK    3  A    between atoms: C_3  and  C_8 
REMARK    4  A    between atoms: C_4  and  C_10 
REMARK    5  A    between atoms: C_4  and  C_11 
REMARK    6  A    between atoms: C_5  and  C_12 
REMARK    7  A    between atoms: C_5  and  C_13 
REMARK    8  A    between atoms: C_6  and  C_15 
REMARK    9  A    between atoms: C_6  and  C_16 
REMARK   10  A    between atoms: C_7  and  C_23 
REMARK   11  A    between atoms: C_9  and  C_17 
REMARK   12  A    between atoms: C_9  and  C_18 
REMARK   13  A    between atoms: C_14  and  C_19 
REMARK   14  A    between atoms: C_14  and  C_20 
REMARK   15  A    between atoms: C_21  and  C_22 
ROOT
HETATM    1  O   UNL     1      30.491  13.011 -11.560  1.00  0.00    -0.776 OA
HETATM    2  H   UNL     1      31.092  12.539 -12.152  1.00  0.00     0.167 HD
ENDROOT
BRANCH   1   3
HETATM    3  C   UNL     1      29.164  12.760 -11.558  1.00  0.00     0.139 C 
HETATM    4  O   UNL     1      28.581  12.539 -12.610  1.00  0.00    -0.650 OA
BRANCH   3   5
HETATM    5  C   UNL     1      28.408  12.751 -10.260  1.00  0.00     0.113 C 
BRANCH   5   6
HETATM    6  C   UNL     1      29.176  11.973  -9.185  1.00  0.00     0.037 C 
BRANCH   6   7
HETATM    7  C   UNL     1      28.895  12.542  -7.815  1.00  0.00    -0.030 C 
HETATM    8  C   UNL     1      29.722  12.534  -6.747  1.00  0.00    -0.027 C 
BRANCH   8   9
HETATM    9  C   UNL     1      31.120  11.957  -6.669  1.00  0.00     0.053 C 
BRANCH   9  10
HETATM   10  C   UNL     1      31.133  10.694  -5.845  1.00  0.00    -0.027 C 
HETATM   11  C   UNL     1      30.966   9.446  -6.319  1.00  0.00    -0.027 C 
BRANCH  11  12
HETATM   12  C   UNL     1      30.791   9.077  -7.769  1.00  0.00     0.053 C 
BRANCH  12  13
HETATM   13  C   UNL     1      32.128   8.864  -8.435  1.00  0.00    -0.027 C 
HETATM   14  C   UNL     1      32.489   7.810  -9.191  1.00  0.00    -0.027 C 
BRANCH  14  15
HETATM   15  C   UNL     1      31.643   6.601  -9.488  1.00  0.00     0.053 C 
BRANCH  15  16
HETATM   16  C   UNL     1      32.247   5.407  -8.782  1.00  0.00    -0.027 C 
HETATM   17  C   UNL     1      32.028   4.994  -7.518  1.00  0.00    -0.027 C 
BRANCH  17  18
HETATM   18  C   UNL     1      31.106   5.618  -6.504  1.00  0.00     0.053 C 
BRANCH  18  19
HETATM   19  C   UNL     1      31.534   5.259  -5.100  1.00  0.00    -0.027 C 
HETATM   20  C   UNL     1      32.379   5.940  -4.300  1.00  0.00    -0.027 C 
BRANCH  20  21
HETATM   21  C   UNL     1      33.055   7.255  -4.600  1.00  0.00     0.053 C 
BRANCH  21  22
HETATM   22  C   UNL     1      34.243   7.054  -5.511  1.00  0.00    -0.027 C 
HETATM   23  C   UNL     1      34.953   8.006  -6.147  1.00  0.00    -0.031 C 
BRANCH  23  24
HETATM   24  C   UNL     1      34.705   9.491  -6.101  1.00  0.00     0.022 C 
HETATM   25  C   UNL     1      35.191  10.124  -4.804  1.00  0.00     0.009 C 
ENDBRANCH  23  24
ENDBRANCH  21  22
ENDBRANCH  20  21
ENDBRANCH  18  19
ENDBRANCH  17  18
ENDBRANCH  15  16
ENDBRANCH  14  15
ENDBRANCH  12  13
ENDBRANCH  11  12
ENDBRANCH   9  10
ENDBRANCH   8   9
ENDBRANCH   6   7
ENDBRANCH   5   6
ENDBRANCH   3   5
ENDBRANCH   1   3
TORSDOF 15
ENDMDL
