MODEL 1
REMARK VINA RESULT:      -8.0      0.000      0.000
REMARK  2 active torsions:
REMARK  status: ('A' for Active; 'I' for Inactive)
REMARK    1  A    between atoms: N_3  and  C_15 
REMARK    2  A    between atoms: C_5  and  C_7 
ROOT
HETATM    1  S   UNL     1       3.459   9.603 -11.643  1.00  0.00    -0.069 SA
HETATM    2  N   UNL     1       5.962   9.989 -11.726  1.00  0.00    -0.344 N 
HETATM    3  C   UNL     1       5.602   9.898 -10.405  1.00  0.00     0.052 A 
HETATM    4  C   UNL     1       4.877   9.817 -12.556  1.00  0.00     0.087 A 
HETATM    5  C   UNL     1       4.252   9.684 -10.179  1.00  0.00     0.034 A 
HETATM    6  C   UNL     1       6.470  10.016  -9.306  1.00  0.00     0.031 A 
HETATM    7  C   UNL     1       3.710   9.575  -8.901  1.00  0.00     0.028 A 
HETATM    8  C   UNL     1       7.343  10.303 -12.120  1.00  0.00     0.157 C 
HETATM    9  C   UNL     1       4.573   9.686  -7.796  1.00  0.00    -0.061 A 
HETATM   10  C   UNL     1       5.951   9.908  -8.006  1.00  0.00     0.009 A 
HETATM   11  C   UNL     1       4.044   9.575  -6.397  1.00  0.00     0.048 C 
ENDROOT
BRANCH   4  12
HETATM   12  C   UNL     1       4.848   9.772 -14.053  1.00  0.00    -0.002 A 
HETATM   13  C   UNL     1       3.654   9.761 -14.796  1.00  0.00     0.016 A 
HETATM   14  C   UNL     1       3.674   9.741 -16.194  1.00  0.00     0.030 A 
HETATM   15  C   UNL     1       4.890   9.740 -16.909  1.00  0.00     0.029 A 
HETATM   16  C   UNL     1       6.085   9.774 -16.160  1.00  0.00     0.030 A 
HETATM   17  C   UNL     1       6.062   9.798 -14.764  1.00  0.00     0.016 A 
BRANCH  15  18
HETATM   18  N   UNL     1       4.911   9.719 -18.353  1.00  0.00    -0.390 N 
HETATM   19  C   UNL     1       6.174   9.772 -19.077  1.00  0.00     0.149 C 
HETATM   20  C   UNL     1       3.671   9.645 -19.113  1.00  0.00     0.149 C 
ENDBRANCH  15  18
ENDBRANCH   4  12
TORSDOF 2
ENDMDL
MODEL 2
REMARK VINA RESULT:      -7.5     25.848     26.662
REMARK  2 active torsions:
REMARK  status: ('A' for Active; 'I' for Inactive)
REMARK    1  A    between atoms: N_3  and  C_15 
REMARK    2  A    between atoms: C_5  and  C_7 
ROOT
HETATM    1  S   UNL     1      31.588   5.268 -12.902  1.00  0.00    -0.069 SA
HETATM    2  N   UNL     1      30.938   7.665 -13.403  1.00  0.00    -0.344 N 
HETATM    3  C   UNL     1      30.950   7.517 -12.039  1.00  0.00     0.052 A 
HETATM    4  C   UNL     1      31.303   6.499 -14.038  1.00  0.00     0.087 A 
HETATM    5  C   UNL     1      31.290   6.251 -11.590  1.00  0.00     0.034 A 
HETATM    6  C   UNL     1      30.638   8.516 -11.101  1.00  0.00     0.031 A 
HETATM    7  C   UNL     1      31.343   5.920 -10.238  1.00  0.00     0.028 A 
HETATM    8  C   UNL     1      30.510   8.924 -14.030  1.00  0.00     0.157 C 
HETATM    9  C   UNL     1      31.038   6.917  -9.293  1.00  0.00    -0.061 A 
HETATM   10  C   UNL     1      30.686   8.211  -9.731  1.00  0.00     0.009 A 
HETATM   11  C   UNL     1      31.081   6.617  -7.824  1.00  0.00     0.048 C 
ENDROOT
BRANCH   4  12
HETATM   12  C   UNL     1      31.485   6.256 -15.506  1.00  0.00    -0.002 A 
HETATM   13  C   UNL     1      32.642   6.638 -16.207  1.00  0.00     0.016 A 
HETATM   14  C   UNL     1      32.780   6.372 -17.573  1.00  0.00     0.030 A 
HETATM   15  C   UNL     1      31.769   5.703 -18.294  1.00  0.00     0.029 A 
HETATM   16  C   UNL     1      30.619   5.302 -17.582  1.00  0.00     0.030 A 
HETATM   17  C   UNL     1      30.487   5.566 -16.216  1.00  0.00     0.016 A 
BRANCH  15  18
HETATM   18  N   UNL     1      31.910   5.429 -19.705  1.00  0.00    -0.390 N 
HETATM   19  C   UNL     1      30.736   5.322 -20.560  1.00  0.00     0.149 C 
HETATM   20  C   UNL     1      33.228   5.253 -20.299  1.00  0.00     0.149 C 
ENDBRANCH  15  18
ENDBRANCH   4  12
TORSDOF 2
ENDMDL
MODEL 3
REMARK VINA RESULT:      -7.5     26.299     28.207
REMARK  2 active torsions:
REMARK  status: ('A' for Active; 'I' for Inactive)
REMARK    1  A    between atoms: N_3  and  C_15 
REMARK    2  A    between atoms: C_5  and  C_7 
ROOT
HETATM    1  S   UNL     1      30.511   5.294 -16.206  1.00  0.00    -0.069 SA
HETATM    2  N   UNL     1      32.777   6.428 -16.187  1.00  0.00    -0.344 N 
HETATM    3  C   UNL     1      32.446   6.188 -17.497  1.00  0.00     0.052 A 
HETATM    4  C   UNL     1      31.781   6.011 -15.333  1.00  0.00     0.087 A 
HETATM    5  C   UNL     1      31.223   5.566 -17.689  1.00  0.00     0.034 A 
HETATM    6  C   UNL     1      33.237   6.502 -18.616  1.00  0.00     0.031 A 
HETATM    7  C   UNL     1      30.733   5.239 -18.950  1.00  0.00     0.028 A 
HETATM    8  C   UNL     1      34.081   7.000 -15.823  1.00  0.00     0.157 C 
HETATM    9  C   UNL     1      31.516   5.555 -20.075  1.00  0.00    -0.061 A 
HETATM   10  C   UNL     1      32.766   6.186 -19.901  1.00  0.00     0.009 A 
HETATM   11  C   UNL     1      31.037   5.228 -21.458  1.00  0.00     0.048 C 
ENDROOT
BRANCH   4  12
HETATM   12  C   UNL     1      31.713   6.153 -13.843  1.00  0.00    -0.002 A 
HETATM   13  C   UNL     1      31.002   7.184 -13.204  1.00  0.00     0.016 A 
HETATM   14  C   UNL     1      30.947   7.266 -11.809  1.00  0.00     0.030 A 
HETATM   15  C   UNL     1      31.593   6.314 -10.993  1.00  0.00     0.029 A 
HETATM   16  C   UNL     1      32.287   5.268 -11.639  1.00  0.00     0.030 A 
HETATM   17  C   UNL     1      32.336   5.187 -13.033  1.00  0.00     0.016 A 
BRANCH  15  18
HETATM   18  N   UNL     1      31.538   6.398  -9.553  1.00  0.00    -0.390 N 
HETATM   19  C   UNL     1      32.026   5.302  -8.726  1.00  0.00     0.149 C 
HETATM   20  C   UNL     1      30.992   7.579  -8.899  1.00  0.00     0.149 C 
ENDBRANCH  15  18
ENDBRANCH   4  12
TORSDOF 2
ENDMDL
MODEL 4
REMARK VINA RESULT:      -7.5     26.240     27.150
REMARK  2 active torsions:
REMARK  status: ('A' for Active; 'I' for Inactive)
REMARK    1  A    between atoms: N_3  and  C_15 
REMARK    2  A    between atoms: C_5  and  C_7 
ROOT
HETATM    1  S   UNL     1      30.545   5.105 -12.331  1.00  0.00    -0.069 SA
HETATM    2  N   UNL     1      32.589   6.598 -12.456  1.00  0.00    -0.344 N 
HETATM    3  C   UNL     1      32.304   6.399 -11.129  1.00  0.00     0.052 A 
HETATM    4  C   UNL     1      31.710   5.915 -13.267  1.00  0.00     0.087 A 
HETATM    5  C   UNL     1      31.203   5.596 -10.879  1.00  0.00     0.034 A 
HETATM    6  C   UNL     1      33.014   6.944 -10.045  1.00  0.00     0.031 A 
HETATM    7  C   UNL     1      30.765   5.295  -9.592  1.00  0.00     0.028 A 
HETATM    8  C   UNL     1      33.671   7.499 -12.877  1.00  0.00     0.157 C 
HETATM    9  C   UNL     1      31.474   5.832  -8.502  1.00  0.00    -0.061 A 
HETATM   10  C   UNL     1      32.595   6.656  -8.736  1.00  0.00     0.009 A 
HETATM   11  C   UNL     1      31.048   5.541  -7.094  1.00  0.00     0.048 C 
ENDROOT
BRANCH   4  12
HETATM   12  C   UNL     1      31.714   5.807 -14.761  1.00  0.00    -0.002 A 
HETATM   13  C   UNL     1      30.709   6.365 -15.572  1.00  0.00     0.016 A 
HETATM   14  C   UNL     1      30.764   6.260 -16.965  1.00  0.00     0.030 A 
HETATM   15  C   UNL     1      31.832   5.601 -17.608  1.00  0.00     0.029 A 
HETATM   16  C   UNL     1      32.850   5.062 -16.792  1.00  0.00     0.030 A 
HETATM   17  C   UNL     1      32.794   5.173 -15.401  1.00  0.00     0.016 A 
BRANCH  15  18
HETATM   18  N   UNL     1      31.889   5.491 -19.047  1.00  0.00    -0.390 N 
HETATM   19  C   UNL     1      33.169   5.509 -19.742  1.00  0.00     0.149 C 
HETATM   20  C   UNL     1      30.668   5.361 -19.830  1.00  0.00     0.149 C 
ENDBRANCH  15  18
ENDBRANCH   4  12
TORSDOF 2
ENDMDL
MODEL 5
REMARK VINA RESULT:      -7.4     26.664     27.454
REMARK  2 active torsions:
REMARK  status: ('A' for Active; 'I' for Inactive)
REMARK    1  A    between atoms: N_3  and  C_15 
REMARK    2  A    between atoms: C_5  and  C_7 
ROOT
HETATM    1  S   UNL     1      31.064   5.253 -13.477  1.00  0.00    -0.069 SA
HETATM    2  N   UNL     1      33.017   6.839 -13.775  1.00  0.00    -0.344 N 
HETATM    3  C   UNL     1      32.947   6.517 -12.443  1.00  0.00     0.052 A 
HETATM    4  C   UNL     1      32.045   6.189 -14.501  1.00  0.00     0.087 A 
HETATM    5  C   UNL     1      31.923   5.648 -12.103  1.00  0.00     0.034 A 
HETATM    6  C   UNL     1      33.799   7.000 -11.434  1.00  0.00     0.031 A 
HETATM    7  C   UNL     1      31.698   5.221 -10.797  1.00  0.00     0.028 A 
HETATM    8  C   UNL     1      33.994   7.819 -14.272  1.00  0.00     0.157 C 
HETATM    9  C   UNL     1      32.550   5.695  -9.782  1.00  0.00    -0.061 A 
HETATM   10  C   UNL     1      33.596   6.584 -10.108  1.00  0.00     0.009 A 
HETATM   11  C   UNL     1      32.356   5.268  -8.359  1.00  0.00     0.048 C 
ENDROOT
BRANCH   4  12
HETATM   12  C   UNL     1      31.821   6.208 -15.983  1.00  0.00    -0.002 A 
HETATM   13  C   UNL     1      31.053   7.193 -16.629  1.00  0.00     0.016 A 
HETATM   14  C   UNL     1      30.889   7.186 -18.017  1.00  0.00     0.030 A 
HETATM   15  C   UNL     1      31.494   6.196 -18.821  1.00  0.00     0.029 A 
HETATM   16  C   UNL     1      32.282   5.223 -18.171  1.00  0.00     0.030 A 
HETATM   17  C   UNL     1      32.448   5.236 -16.784  1.00  0.00     0.016 A 
BRANCH  15  18
HETATM   18  N   UNL     1      31.324   6.187 -20.255  1.00  0.00    -0.390 N 
HETATM   19  C   UNL     1      31.782   5.054 -21.048  1.00  0.00     0.149 C 
HETATM   20  C   UNL     1      30.692   7.309 -20.935  1.00  0.00     0.149 C 
ENDBRANCH  15  18
ENDBRANCH   4  12
TORSDOF 2
ENDMDL
MODEL 6
REMARK VINA RESULT:      -7.4     26.284     27.995
REMARK  2 active torsions:
REMARK  status: ('A' for Active; 'I' for Inactive)
REMARK    1  A    between atoms: N_3  and  C_15 
REMARK    2  A    between atoms: C_5  and  C_7 
ROOT
HETATM    1  S   UNL     1      31.897   4.965 -17.085  1.00  0.00    -0.069 SA
HETATM    2  N   UNL     1      31.213   7.380 -16.738  1.00  0.00    -0.344 N 
HETATM    3  C   UNL     1      31.110   7.111 -18.080  1.00  0.00     0.052 A 
HETATM    4  C   UNL     1      31.617   6.270 -16.032  1.00  0.00     0.087 A 
HETATM    5  C   UNL     1      31.451   5.819 -18.446  1.00  0.00     0.034 A 
HETATM    6  C   UNL     1      30.713   8.022 -19.074  1.00  0.00     0.031 A 
HETATM    7  C   UNL     1      31.413   5.374 -19.765  1.00  0.00     0.028 A 
HETATM    8  C   UNL     1      30.971   8.731 -16.212  1.00  0.00     0.157 C 
HETATM    9  C   UNL     1      31.011   6.278 -20.765  1.00  0.00    -0.061 A 
HETATM   10  C   UNL     1      30.664   7.600 -20.412  1.00  0.00     0.009 A 
HETATM   11  C   UNL     1      30.951   5.854 -22.202  1.00  0.00     0.048 C 
ENDROOT
BRANCH   4  12
HETATM   12  C   UNL     1      31.781   6.118 -14.551  1.00  0.00    -0.002 A 
HETATM   13  C   UNL     1      32.891   6.622 -13.848  1.00  0.00     0.016 A 
HETATM   14  C   UNL     1      32.993   6.478 -12.461  1.00  0.00     0.030 A 
HETATM   15  C   UNL     1      31.985   5.831 -11.716  1.00  0.00     0.029 A 
HETATM   16  C   UNL     1      30.863   5.347 -12.422  1.00  0.00     0.030 A 
HETATM   17  C   UNL     1      30.762   5.497 -13.807  1.00  0.00     0.016 A 
BRANCH  15  18
HETATM   18  N   UNL     1      32.091   5.681 -10.283  1.00  0.00    -0.390 N 
HETATM   19  C   UNL     1      33.364   5.891  -9.607  1.00  0.00     0.149 C 
HETATM   20  C   UNL     1      30.927   5.315  -9.488  1.00  0.00     0.149 C 
ENDBRANCH  15  18
ENDBRANCH   4  12
TORSDOF 2
ENDMDL
MODEL 7
REMARK VINA RESULT:      -7.3     26.234     28.019
REMARK  2 active torsions:
REMARK  status: ('A' for Active; 'I' for Inactive)
REMARK    1  A    between atoms: N_3  and  C_15 
REMARK    2  A    between atoms: C_5  and  C_7 
ROOT
HETATM    1  S   UNL     1      32.050   4.935 -16.892  1.00  0.00    -0.069 SA
HETATM    2  N   UNL     1      31.143   7.283 -16.596  1.00  0.00    -0.344 N 
HETATM    3  C   UNL     1      31.142   7.006 -17.940  1.00  0.00     0.052 A 
HETATM    4  C   UNL     1      31.598   6.210 -15.862  1.00  0.00     0.087 A 
HETATM    5  C   UNL     1      31.612   5.748 -18.280  1.00  0.00     0.034 A 
HETATM    6  C   UNL     1      30.727   7.881 -18.959  1.00  0.00     0.031 A 
HETATM    7  C   UNL     1      31.690   5.303 -19.597  1.00  0.00     0.028 A 
HETATM    8  C   UNL     1      30.757   8.607 -16.090  1.00  0.00     0.157 C 
HETATM    9  C   UNL     1      31.271   6.171 -20.623  1.00  0.00    -0.061 A 
HETATM   10  C   UNL     1      30.792   7.457 -20.296  1.00  0.00     0.009 A 
HETATM   11  C   UNL     1      31.331   5.744 -22.058  1.00  0.00     0.048 C 
ENDROOT
BRANCH   4  12
HETATM   12  C   UNL     1      31.689   6.072 -14.373  1.00  0.00    -0.002 A 
HETATM   13  C   UNL     1      30.729   5.385 -13.608  1.00  0.00     0.016 A 
HETATM   14  C   UNL     1      30.864   5.261 -12.222  1.00  0.00     0.030 A 
HETATM   15  C   UNL     1      31.971   5.811 -11.543  1.00  0.00     0.029 A 
HETATM   16  C   UNL     1      32.943   6.480 -12.316  1.00  0.00     0.030 A 
HETATM   17  C   UNL     1      32.807   6.598 -13.702  1.00  0.00     0.016 A 
BRANCH  15  18
HETATM   18  N   UNL     1      32.111   5.684 -10.111  1.00  0.00    -0.390 N 
HETATM   19  C   UNL     1      33.387   5.959  -9.463  1.00  0.00     0.149 C 
HETATM   20  C   UNL     1      30.980   5.278  -9.287  1.00  0.00     0.149 C 
ENDBRANCH  15  18
ENDBRANCH   4  12
TORSDOF 2
ENDMDL
MODEL 8
REMARK VINA RESULT:      -7.3     26.547     27.298
REMARK  2 active torsions:
REMARK  status: ('A' for Active; 'I' for Inactive)
REMARK    1  A    between atoms: N_3  and  C_15 
REMARK    2  A    between atoms: C_5  and  C_7 
ROOT
HETATM    1  S   UNL     1      30.366   5.504 -16.485  1.00  0.00    -0.069 SA
HETATM    2  N   UNL     1      32.552   6.777 -16.646  1.00  0.00    -0.344 N 
HETATM    3  C   UNL     1      32.383   6.411 -15.334  1.00  0.00     0.052 A 
HETATM    4  C   UNL     1      31.518   6.319 -17.432  1.00  0.00     0.087 A 
HETATM    5  C   UNL     1      31.224   5.699 -15.068  1.00  0.00     0.034 A 
HETATM    6  C   UNL     1      33.261   6.709 -14.278  1.00  0.00     0.031 A 
HETATM    7  C   UNL     1      30.888   5.255 -13.792  1.00  0.00     0.028 A 
HETATM    8  C   UNL     1      33.686   7.612 -17.064  1.00  0.00     0.157 C 
HETATM    9  C   UNL     1      31.765   5.544 -12.730  1.00  0.00    -0.061 A 
HETATM   10  C   UNL     1      32.948   6.272 -12.981  1.00  0.00     0.009 A 
HETATM   11  C   UNL     1      31.454   5.091 -11.336  1.00  0.00     0.048 C 
ENDROOT
BRANCH   4  12
HETATM   12  C   UNL     1      31.355   6.438 -18.917  1.00  0.00    -0.002 A 
HETATM   13  C   UNL     1      30.931   7.622 -19.548  1.00  0.00     0.016 A 
HETATM   14  C   UNL     1      30.814   7.696 -20.939  1.00  0.00     0.030 A 
HETATM   15  C   UNL     1      31.125   6.591 -21.760  1.00  0.00     0.029 A 
HETATM   16  C   UNL     1      31.571   5.413 -21.124  1.00  0.00     0.030 A 
HETATM   17  C   UNL     1      31.691   5.344 -19.734  1.00  0.00     0.016 A 
BRANCH  15  18
HETATM   18  N   UNL     1      31.004   6.666 -23.197  1.00  0.00    -0.390 N 
HETATM   19  C   UNL     1      30.810   7.949 -23.859  1.00  0.00     0.149 C 
HETATM   20  C   UNL     1      31.070   5.461 -24.012  1.00  0.00     0.149 C 
ENDBRANCH  15  18
ENDBRANCH   4  12
TORSDOF 2
ENDMDL
MODEL 9
REMARK VINA RESULT:      -7.3     26.154     28.568
REMARK  2 active torsions:
REMARK  status: ('A' for Active; 'I' for Inactive)
REMARK    1  A    between atoms: N_3  and  C_15 
REMARK    2  A    between atoms: C_5  and  C_7 
ROOT
HETATM    1  S   UNL     1      31.250   5.228 -17.550  1.00  0.00    -0.069 SA
HETATM    2  N   UNL     1      33.096   6.949 -17.319  1.00  0.00    -0.344 N 
HETATM    3  C   UNL     1      33.006   6.616 -18.648  1.00  0.00     0.052 A 
HETATM    4  C   UNL     1      32.158   6.277 -16.568  1.00  0.00     0.087 A 
HETATM    5  C   UNL     1      32.034   5.676 -18.952  1.00  0.00     0.034 A 
HETATM    6  C   UNL     1      33.809   7.129 -19.681  1.00  0.00     0.031 A 
HETATM    7  C   UNL     1      31.810   5.215 -20.246  1.00  0.00     0.028 A 
HETATM    8  C   UNL     1      34.138   7.863 -16.832  1.00  0.00     0.157 C 
HETATM    9  C   UNL     1      32.606   5.729 -21.287  1.00  0.00    -0.061 A 
HETATM   10  C   UNL     1      33.603   6.684 -20.996  1.00  0.00     0.009 A 
HETATM   11  C   UNL     1      32.408   5.270 -22.700  1.00  0.00     0.048 C 
ENDROOT
BRANCH   4  12
HETATM   12  C   UNL     1      31.874   6.406 -15.103  1.00  0.00    -0.002 A 
HETATM   13  C   UNL     1      31.123   7.464 -14.559  1.00  0.00     0.016 A 
HETATM   14  C   UNL     1      30.862   7.533 -13.187  1.00  0.00     0.030 A 
HETATM   15  C   UNL     1      31.333   6.542 -12.301  1.00  0.00     0.029 A 
HETATM   16  C   UNL     1      32.067   5.470 -12.854  1.00  0.00     0.030 A 
HETATM   17  C   UNL     1      32.321   5.402 -14.226  1.00  0.00     0.016 A 
BRANCH  15  18
HETATM   18  N   UNL     1      31.066   6.613 -10.884  1.00  0.00    -0.390 N 
HETATM   19  C   UNL     1      30.638   7.864 -10.272  1.00  0.00     0.149 C 
HETATM   20  C   UNL     1      31.219   5.437 -10.039  1.00  0.00     0.149 C 
ENDBRANCH  15  18
ENDBRANCH   4  12
TORSDOF 2
ENDMDL
MODEL 10
REMARK VINA RESULT:      -7.3     26.552     28.261
REMARK  2 active torsions:
REMARK  status: ('A' for Active; 'I' for Inactive)
REMARK    1  A    between atoms: N_3  and  C_15 
REMARK    2  A    between atoms: C_5  and  C_7 
ROOT
HETATM    1  S   UNL     1      31.074   5.283 -12.861  1.00  0.00    -0.069 SA
HETATM    2  N   UNL     1      32.986   6.926 -12.606  1.00  0.00    -0.344 N 
HETATM    3  C   UNL     1      32.902   6.595 -13.935  1.00  0.00     0.052 A 
HETATM    4  C   UNL     1      32.011   6.295 -11.867  1.00  0.00     0.087 A 
HETATM    5  C   UNL     1      31.896   5.695 -14.252  1.00  0.00     0.034 A 
HETATM    6  C   UNL     1      33.740   7.072 -14.957  1.00  0.00     0.031 A 
HETATM    7  C   UNL     1      31.671   5.242 -15.549  1.00  0.00     0.028 A 
HETATM    8  C   UNL     1      34.058   7.798 -12.106  1.00  0.00     0.157 C 
HETATM    9  C   UNL     1      32.503   5.720 -16.579  1.00  0.00    -0.061 A 
HETATM   10  C   UNL     1      33.535   6.633 -16.275  1.00  0.00     0.009 A 
HETATM   11  C   UNL     1      32.305   5.266 -17.994  1.00  0.00     0.048 C 
ENDROOT
BRANCH   4  12
HETATM   12  C   UNL     1      31.711   6.439 -10.406  1.00  0.00    -0.002 A 
HETATM   13  C   UNL     1      31.150   7.603  -9.851  1.00  0.00     0.016 A 
HETATM   14  C   UNL     1      30.866   7.686  -8.484  1.00  0.00     0.030 A 
HETATM   15  C   UNL     1      31.122   6.604  -7.616  1.00  0.00     0.029 A 
HETATM   16  C   UNL     1      31.663   5.430  -8.182  1.00  0.00     0.030 A 
HETATM   17  C   UNL     1      31.942   5.349  -9.548  1.00  0.00     0.016 A 
BRANCH  15  18
HETATM   18  N   UNL     1      30.829   6.689  -6.205  1.00  0.00    -0.390 N 
HETATM   19  C   UNL     1      30.823   5.492  -5.375  1.00  0.00     0.149 C 
HETATM   20  C   UNL     1      30.533   7.973  -5.584  1.00  0.00     0.149 C 
ENDBRANCH  15  18
ENDBRANCH   4  12
TORSDOF 2
ENDMDL
MODEL 11
REMARK VINA RESULT:      -7.2     26.025     26.846
REMARK  2 active torsions:
REMARK  status: ('A' for Active; 'I' for Inactive)
REMARK    1  A    between atoms: N_3  and  C_15 
REMARK    2  A    between atoms: C_5  and  C_7 
ROOT
HETATM    1  S   UNL     1      31.688   5.285  -8.287  1.00  0.00    -0.069 SA
HETATM    2  N   UNL     1      30.936   7.645  -8.821  1.00  0.00    -0.344 N 
HETATM    3  C   UNL     1      30.958   7.518  -7.455  1.00  0.00     0.052 A 
HETATM    4  C   UNL     1      31.347   6.486  -9.440  1.00  0.00     0.087 A 
HETATM    5  C   UNL     1      31.352   6.274  -6.988  1.00  0.00     0.034 A 
HETATM    6  C   UNL     1      30.608   8.517  -6.530  1.00  0.00     0.031 A 
HETATM    7  C   UNL     1      31.425   5.966  -5.632  1.00  0.00     0.028 A 
HETATM    8  C   UNL     1      30.453   8.875  -9.464  1.00  0.00     0.157 C 
HETATM    9  C   UNL     1      31.081   6.963  -4.700  1.00  0.00    -0.061 A 
HETATM   10  C   UNL     1      30.674   8.234  -5.156  1.00  0.00     0.009 A 
HETATM   11  C   UNL     1      31.142   6.687  -3.228  1.00  0.00     0.048 C 
ENDROOT
BRANCH   4  12
HETATM   12  C   UNL     1      31.534   6.229 -10.904  1.00  0.00    -0.002 A 
HETATM   13  C   UNL     1      32.713   6.561 -11.595  1.00  0.00     0.016 A 
HETATM   14  C   UNL     1      32.853   6.283 -12.958  1.00  0.00     0.030 A 
HETATM   15  C   UNL     1      31.824   5.652 -13.687  1.00  0.00     0.029 A 
HETATM   16  C   UNL     1      30.651   5.300 -12.985  1.00  0.00     0.030 A 
HETATM   17  C   UNL     1      30.516   5.575 -11.622  1.00  0.00     0.016 A 
BRANCH  15  18
HETATM   18  N   UNL     1      31.968   5.365 -15.095  1.00  0.00    -0.390 N 
HETATM   19  C   UNL     1      30.797   5.273 -15.957  1.00  0.00     0.149 C 
HETATM   20  C   UNL     1      33.286   5.161 -15.680  1.00  0.00     0.149 C 
ENDBRANCH  15  18
ENDBRANCH   4  12
TORSDOF 2
ENDMDL
MODEL 12
REMARK VINA RESULT:      -7.2     26.433     28.259
REMARK  2 active torsions:
REMARK  status: ('A' for Active; 'I' for Inactive)
REMARK    1  A    between atoms: N_3  and  C_15 
REMARK    2  A    between atoms: C_5  and  C_7 
ROOT
HETATM    1  S   UNL     1      30.572   5.289 -11.614  1.00  0.00    -0.069 SA
HETATM    2  N   UNL     1      32.765   6.558 -11.617  1.00  0.00    -0.344 N 
HETATM    3  C   UNL     1      32.433   6.305 -12.924  1.00  0.00     0.052 A 
HETATM    4  C   UNL     1      31.807   6.077 -10.753  1.00  0.00     0.087 A 
HETATM    5  C   UNL     1      31.248   5.611 -13.104  1.00  0.00     0.034 A 
HETATM    6  C   UNL     1      33.190   6.672 -14.051  1.00  0.00     0.031 A 
HETATM    7  C   UNL     1      30.762   5.261 -14.361  1.00  0.00     0.028 A 
HETATM    8  C   UNL     1      34.037   7.206 -11.266  1.00  0.00     0.157 C 
HETATM    9  C   UNL     1      31.511   5.630 -15.495  1.00  0.00    -0.061 A 
HETATM   10  C   UNL     1      32.723   6.334 -15.331  1.00  0.00     0.009 A 
HETATM   11  C   UNL     1      31.035   5.281 -16.873  1.00  0.00     0.048 C 
ENDROOT
BRANCH   4  12
HETATM   12  C   UNL     1      31.750   6.207  -9.262  1.00  0.00    -0.002 A 
HETATM   13  C   UNL     1      31.047   7.236  -8.609  1.00  0.00     0.016 A 
HETATM   14  C   UNL     1      31.001   7.307  -7.214  1.00  0.00     0.030 A 
HETATM   15  C   UNL     1      31.649   6.346  -6.410  1.00  0.00     0.029 A 
HETATM   16  C   UNL     1      32.334   5.302  -7.069  1.00  0.00     0.030 A 
HETATM   17  C   UNL     1      32.374   5.232  -8.463  1.00  0.00     0.016 A 
BRANCH  15  18
HETATM   18  N   UNL     1      31.603   6.418  -4.969  1.00  0.00    -0.390 N 
HETATM   19  C   UNL     1      32.175   5.355  -4.154  1.00  0.00     0.149 C 
HETATM   20  C   UNL     1      30.982   7.555  -4.302  1.00  0.00     0.149 C 
ENDBRANCH  15  18
ENDBRANCH   4  12
TORSDOF 2
ENDMDL
MODEL 13
REMARK VINA RESULT:      -7.2     25.843     27.056
REMARK  2 active torsions:
REMARK  status: ('A' for Active; 'I' for Inactive)
REMARK    1  A    between atoms: N_3  and  C_15 
REMARK    2  A    between atoms: C_5  and  C_7 
ROOT
HETATM    1  S   UNL     1      33.305   6.747 -11.879  1.00  0.00    -0.069 SA
HETATM    2  N   UNL     1      31.072   5.562 -11.715  1.00  0.00    -0.344 N 
HETATM    3  C   UNL     1      31.548   5.723 -10.439  1.00  0.00     0.052 A 
HETATM    4  C   UNL     1      31.928   6.109 -12.644  1.00  0.00     0.087 A 
HETATM    5  C   UNL     1      32.775   6.361 -10.347  1.00  0.00     0.034 A 
HETATM    6  C   UNL     1      30.913   5.288  -9.262  1.00  0.00     0.031 A 
HETATM    7  C   UNL     1      33.411   6.600  -9.132  1.00  0.00     0.028 A 
HETATM    8  C   UNL     1      29.828   4.824 -11.977  1.00  0.00     0.157 C 
HETATM    9  C   UNL     1      32.779   6.174  -7.949  1.00  0.00    -0.061 A 
HETATM   10  C   UNL     1      31.531   5.518  -8.023  1.00  0.00     0.009 A 
HETATM   11  C   UNL     1      33.418   6.405  -6.613  1.00  0.00     0.048 C 
ENDROOT
BRANCH   4  12
HETATM   12  C   UNL     1      31.749   6.212 -14.128  1.00  0.00    -0.002 A 
HETATM   13  C   UNL     1      32.299   5.284 -15.031  1.00  0.00     0.016 A 
HETATM   14  C   UNL     1      32.088   5.405 -16.408  1.00  0.00     0.030 A 
HETATM   15  C   UNL     1      31.310   6.454 -16.940  1.00  0.00     0.029 A 
HETATM   16  C   UNL     1      30.741   7.370 -16.029  1.00  0.00     0.030 A 
HETATM   17  C   UNL     1      30.950   7.243 -14.653  1.00  0.00     0.016 A 
BRANCH  15  18
HETATM   18  N   UNL     1      31.092   6.581 -18.362  1.00  0.00    -0.390 N 
HETATM   19  C   UNL     1      30.907   7.892 -18.971  1.00  0.00     0.149 C 
HETATM   20  C   UNL     1      31.053   5.401 -19.215  1.00  0.00     0.149 C 
ENDBRANCH  15  18
ENDBRANCH   4  12
TORSDOF 2
ENDMDL
MODEL 14
REMARK VINA RESULT:      -7.1     26.016     28.384
REMARK  2 active torsions:
REMARK  status: ('A' for Active; 'I' for Inactive)
REMARK    1  A    between atoms: N_3  and  C_15 
REMARK    2  A    between atoms: C_5  and  C_7 
ROOT
HETATM    1  S   UNL     1      33.221   7.126 -16.966  1.00  0.00    -0.069 SA
HETATM    2  N   UNL     1      31.135   5.693 -17.087  1.00  0.00    -0.344 N 
HETATM    3  C   UNL     1      31.588   5.872 -18.370  1.00  0.00     0.052 A 
HETATM    4  C   UNL     1      31.958   6.311 -16.173  1.00  0.00     0.087 A 
HETATM    5  C   UNL     1      32.735   6.642 -18.485  1.00  0.00     0.034 A 
HETATM    6  C   UNL     1      30.986   5.363 -19.534  1.00  0.00     0.031 A 
HETATM    7  C   UNL     1      33.328   6.933 -19.711  1.00  0.00     0.028 A 
HETATM    8  C   UNL     1      29.882   4.976 -16.815  1.00  0.00     0.157 C 
HETATM    9  C   UNL     1      32.734   6.422 -20.880  1.00  0.00    -0.061 A 
HETATM   10  C   UNL     1      31.564   5.639 -20.783  1.00  0.00     0.009 A 
HETATM   11  C   UNL     1      33.330   6.703 -22.226  1.00  0.00     0.048 C 
ENDROOT
BRANCH   4  12
HETATM   12  C   UNL     1      31.863   6.299 -14.678  1.00  0.00    -0.002 A 
HETATM   13  C   UNL     1      32.503   5.335 -13.878  1.00  0.00     0.016 A 
HETATM   14  C   UNL     1      32.406   5.374 -12.484  1.00  0.00     0.030 A 
HETATM   15  C   UNL     1      31.671   6.385 -11.829  1.00  0.00     0.029 A 
HETATM   16  C   UNL     1      31.048   7.362 -12.634  1.00  0.00     0.030 A 
HETATM   17  C   UNL     1      31.152   7.323 -14.027  1.00  0.00     0.016 A 
BRANCH  15  18
HETATM   18  N   UNL     1      31.569   6.425 -10.389  1.00  0.00    -0.390 N 
HETATM   19  C   UNL     1      30.959   7.567  -9.720  1.00  0.00     0.149 C 
HETATM   20  C   UNL     1      32.074   5.327  -9.578  1.00  0.00     0.149 C 
ENDBRANCH  15  18
ENDBRANCH   4  12
TORSDOF 2
ENDMDL
MODEL 15
REMARK VINA RESULT:      -7.1     26.056     26.521
REMARK  2 active torsions:
REMARK  status: ('A' for Active; 'I' for Inactive)
REMARK    1  A    between atoms: N_3  and  C_15 
REMARK    2  A    between atoms: C_5  and  C_7 
ROOT
HETATM    1  S   UNL     1      30.690   8.015 -11.090  1.00  0.00    -0.069 SA
HETATM    2  N   UNL     1      31.872   5.774 -11.110  1.00  0.00    -0.344 N 
HETATM    3  C   UNL     1      31.691   6.134  -9.798  1.00  0.00     0.052 A 
HETATM    4  C   UNL     1      31.340   6.712 -11.966  1.00  0.00     0.087 A 
HETATM    5  C   UNL     1      31.051   7.348  -9.606  1.00  0.00     0.034 A 
HETATM    6  C   UNL     1      32.106   5.394  -8.677  1.00  0.00     0.031 A 
HETATM    7  C   UNL     1      30.793   7.872  -8.342  1.00  0.00     0.028 A 
HETATM    8  C   UNL     1      32.614   4.558 -11.471  1.00  0.00     0.157 C 
HETATM    9  C   UNL     1      31.200   7.135  -7.215  1.00  0.00    -0.061 A 
HETATM   10  C   UNL     1      31.856   5.898  -7.391  1.00  0.00     0.009 A 
HETATM   11  C   UNL     1      30.947   7.650  -5.831  1.00  0.00     0.048 C 
ENDROOT
BRANCH   4  12
HETATM   12  C   UNL     1      31.262   6.668 -13.462  1.00  0.00    -0.002 A 
HETATM   13  C   UNL     1      30.998   5.488 -14.180  1.00  0.00     0.016 A 
HETATM   14  C   UNL     1      30.911   5.497 -15.576  1.00  0.00     0.030 A 
HETATM   15  C   UNL     1      31.076   6.689 -16.312  1.00  0.00     0.029 A 
HETATM   16  C   UNL     1      31.319   7.874 -15.586  1.00  0.00     0.030 A 
HETATM   17  C   UNL     1      31.400   7.863 -14.191  1.00  0.00     0.016 A 
BRANCH  15  18
HETATM   18  N   UNL     1      30.988   6.698 -17.754  1.00  0.00    -0.390 N 
HETATM   19  C   UNL     1      31.048   5.454 -18.509  1.00  0.00     0.149 C 
HETATM   20  C   UNL     1      30.839   7.952 -18.480  1.00  0.00     0.149 C 
ENDBRANCH  15  18
ENDBRANCH   4  12
TORSDOF 2
ENDMDL
MODEL 16
REMARK VINA RESULT:      -7.1     26.113     27.275
REMARK  2 active torsions:
REMARK  status: ('A' for Active; 'I' for Inactive)
REMARK    1  A    between atoms: N_3  and  C_15 
REMARK    2  A    between atoms: C_5  and  C_7 
ROOT
HETATM    1  S   UNL     1      31.489   5.128 -17.471  1.00  0.00    -0.069 SA
HETATM    2  N   UNL     1      30.918   7.546 -17.970  1.00  0.00    -0.344 N 
HETATM    3  C   UNL     1      30.931   7.399 -16.605  1.00  0.00     0.052 A 
HETATM    4  C   UNL     1      31.239   6.369 -18.606  1.00  0.00     0.087 A 
HETATM    5  C   UNL     1      31.230   6.122 -16.157  1.00  0.00     0.034 A 
HETATM    6  C   UNL     1      30.658   8.408 -15.666  1.00  0.00     0.031 A 
HETATM    7  C   UNL     1      31.278   5.790 -14.806  1.00  0.00     0.028 A 
HETATM    8  C   UNL     1      30.530   8.819 -18.594  1.00  0.00     0.157 C 
HETATM    9  C   UNL     1      31.012   6.796 -13.859  1.00  0.00    -0.061 A 
HETATM   10  C   UNL     1      30.702   8.101 -14.296  1.00  0.00     0.009 A 
HETATM   11  C   UNL     1      31.052   6.495 -12.391  1.00  0.00     0.048 C 
ENDROOT
BRANCH   4  12
HETATM   12  C   UNL     1      31.406   6.120 -20.074  1.00  0.00    -0.002 A 
HETATM   13  C   UNL     1      30.415   5.511 -20.865  1.00  0.00     0.016 A 
HETATM   14  C   UNL     1      30.604   5.317 -22.236  1.00  0.00     0.030 A 
HETATM   15  C   UNL     1      31.789   5.734 -22.878  1.00  0.00     0.029 A 
HETATM   16  C   UNL     1      32.771   6.365 -22.086  1.00  0.00     0.030 A 
HETATM   17  C   UNL     1      32.577   6.561 -20.716  1.00  0.00     0.016 A 
BRANCH  15  18
HETATM   18  N   UNL     1      31.985   5.534 -24.295  1.00  0.00    -0.390 N 
HETATM   19  C   UNL     1      30.848   5.309 -25.177  1.00  0.00     0.149 C 
HETATM   20  C   UNL     1      33.324   5.553 -24.869  1.00  0.00     0.149 C 
ENDBRANCH  15  18
ENDBRANCH   4  12
TORSDOF 2
ENDMDL
MODEL 17
REMARK VINA RESULT:      -7.1     26.106     27.957
REMARK  2 active torsions:
REMARK  status: ('A' for Active; 'I' for Inactive)
REMARK    1  A    between atoms: N_3  and  C_15 
REMARK    2  A    between atoms: C_5  and  C_7 
ROOT
HETATM    1  S   UNL     1      31.810   5.040 -11.930  1.00  0.00    -0.069 SA
HETATM    2  N   UNL     1      31.241   7.487 -11.600  1.00  0.00    -0.344 N 
HETATM    3  C   UNL     1      31.107   7.209 -12.937  1.00  0.00     0.052 A 
HETATM    4  C   UNL     1      31.604   6.366 -10.887  1.00  0.00     0.087 A 
HETATM    5  C   UNL     1      31.384   5.899 -13.294  1.00  0.00     0.034 A 
HETATM    6  C   UNL     1      30.738   8.128 -13.935  1.00  0.00     0.031 A 
HETATM    7  C   UNL     1      31.308   5.444 -14.607  1.00  0.00     0.028 A 
HETATM    8  C   UNL     1      31.068   8.853 -11.085  1.00  0.00     0.157 C 
HETATM    9  C   UNL     1      30.934   6.356 -15.612  1.00  0.00    -0.061 A 
HETATM   10  C   UNL     1      30.652   7.695 -15.268  1.00  0.00     0.009 A 
HETATM   11  C   UNL     1      30.834   5.920 -17.042  1.00  0.00     0.048 C 
ENDROOT
BRANCH   4  12
HETATM   12  C   UNL     1      31.781   6.222  -9.407  1.00  0.00    -0.002 A 
HETATM   13  C   UNL     1      32.898   6.727  -8.717  1.00  0.00     0.016 A 
HETATM   14  C   UNL     1      33.013   6.589  -7.330  1.00  0.00     0.030 A 
HETATM   15  C   UNL     1      32.011   5.949  -6.572  1.00  0.00     0.029 A 
HETATM   16  C   UNL     1      30.881   5.464  -7.265  1.00  0.00     0.030 A 
HETATM   17  C   UNL     1      30.768   5.607  -8.650  1.00  0.00     0.016 A 
BRANCH  15  18
HETATM   18  N   UNL     1      32.129   5.806  -5.140  1.00  0.00    -0.390 N 
HETATM   19  C   UNL     1      31.020   5.284  -4.353  1.00  0.00     0.149 C 
HETATM   20  C   UNL     1      33.359   6.181  -4.456  1.00  0.00     0.149 C 
ENDBRANCH  15  18
ENDBRANCH   4  12
TORSDOF 2
ENDMDL
MODEL 18
REMARK VINA RESULT:      -7.1     25.945     28.287
REMARK  2 active torsions:
REMARK  status: ('A' for Active; 'I' for Inactive)
REMARK    1  A    between atoms: N_3  and  C_15 
REMARK    2  A    between atoms: C_5  and  C_7 
ROOT
HETATM    1  S   UNL     1      33.156   7.168 -12.201  1.00  0.00    -0.069 SA
HETATM    2  N   UNL     1      31.115   5.668 -12.286  1.00  0.00    -0.344 N 
HETATM    3  C   UNL     1      31.537   5.865 -13.577  1.00  0.00     0.052 A 
HETATM    4  C   UNL     1      31.935   6.311 -11.386  1.00  0.00     0.087 A 
HETATM    5  C   UNL     1      32.655   6.671 -13.712  1.00  0.00     0.034 A 
HETATM    6  C   UNL     1      30.928   5.339 -14.730  1.00  0.00     0.031 A 
HETATM    7  C   UNL     1      33.215   6.983 -14.948  1.00  0.00     0.028 A 
HETATM    8  C   UNL     1      29.890   4.911 -11.991  1.00  0.00     0.157 C 
HETATM    9  C   UNL     1      32.615   6.456 -16.107  1.00  0.00    -0.061 A 
HETATM   10  C   UNL     1      31.473   5.636 -15.990  1.00  0.00     0.009 A 
HETATM   11  C   UNL     1      33.175   6.759 -17.464  1.00  0.00     0.048 C 
ENDROOT
BRANCH   4  12
HETATM   12  C   UNL     1      31.870   6.293  -9.889  1.00  0.00    -0.002 A 
HETATM   13  C   UNL     1      32.603   5.388  -9.102  1.00  0.00     0.016 A 
HETATM   14  C   UNL     1      32.529   5.420  -7.706  1.00  0.00     0.030 A 
HETATM   15  C   UNL     1      31.725   6.366  -7.037  1.00  0.00     0.029 A 
HETATM   16  C   UNL     1      31.008   7.287  -7.830  1.00  0.00     0.030 A 
HETATM   17  C   UNL     1      31.088   7.255  -9.225  1.00  0.00     0.016 A 
BRANCH  15  18
HETATM   18  N   UNL     1      31.648   6.400  -5.596  1.00  0.00    -0.390 N 
HETATM   19  C   UNL     1      30.976   7.499  -4.914  1.00  0.00     0.149 C 
HETATM   20  C   UNL     1      32.240   5.337  -4.795  1.00  0.00     0.149 C 
ENDBRANCH  15  18
ENDBRANCH   4  12
TORSDOF 2
ENDMDL
MODEL 19
REMARK VINA RESULT:      -7.0     26.174     27.503
REMARK  2 active torsions:
REMARK  status: ('A' for Active; 'I' for Inactive)
REMARK    1  A    between atoms: N_3  and  C_15 
REMARK    2  A    between atoms: C_5  and  C_7 
ROOT
HETATM    1  S   UNL     1      33.324   6.711 -16.717  1.00  0.00    -0.069 SA
HETATM    2  N   UNL     1      31.069   5.566 -16.558  1.00  0.00    -0.344 N 
HETATM    3  C   UNL     1      31.551   5.708 -15.281  1.00  0.00     0.052 A 
HETATM    4  C   UNL     1      31.933   6.105 -17.484  1.00  0.00     0.087 A 
HETATM    5  C   UNL     1      32.789   6.322 -15.186  1.00  0.00     0.034 A 
HETATM    6  C   UNL     1      30.909   5.276 -14.107  1.00  0.00     0.031 A 
HETATM    7  C   UNL     1      33.432   6.539 -13.971  1.00  0.00     0.028 A 
HETATM    8  C   UNL     1      29.811   4.854 -16.823  1.00  0.00     0.157 C 
HETATM    9  C   UNL     1      32.794   6.115 -12.791  1.00  0.00    -0.061 A 
HETATM   10  C   UNL     1      31.534   5.484 -12.867  1.00  0.00     0.009 A 
HETATM   11  C   UNL     1      33.440   6.324 -11.454  1.00  0.00     0.048 C 
ENDROOT
BRANCH   4  12
HETATM   12  C   UNL     1      31.753   6.223 -18.967  1.00  0.00    -0.002 A 
HETATM   13  C   UNL     1      32.229   5.259 -19.875  1.00  0.00     0.016 A 
HETATM   14  C   UNL     1      32.020   5.398 -21.250  1.00  0.00     0.030 A 
HETATM   15  C   UNL     1      31.316   6.502 -21.776  1.00  0.00     0.029 A 
HETATM   16  C   UNL     1      30.821   7.454 -20.860  1.00  0.00     0.030 A 
HETATM   17  C   UNL     1      31.028   7.310 -19.486  1.00  0.00     0.016 A 
BRANCH  15  18
HETATM   18  N   UNL     1      31.100   6.646 -23.197  1.00  0.00    -0.390 N 
HETATM   19  C   UNL     1      30.856   7.958 -23.780  1.00  0.00     0.149 C 
HETATM   20  C   UNL     1      31.121   5.483 -24.073  1.00  0.00     0.149 C 
ENDBRANCH  15  18
ENDBRANCH   4  12
TORSDOF 2
ENDMDL
MODEL 20
REMARK VINA RESULT:      -6.9     26.152     28.371
REMARK  2 active torsions:
REMARK  status: ('A' for Active; 'I' for Inactive)
REMARK    1  A    between atoms: N_3  and  C_15 
REMARK    2  A    between atoms: C_5  and  C_7 
ROOT
HETATM    1  S   UNL     1      32.454   5.379 -19.143  1.00  0.00    -0.069 SA
HETATM    2  N   UNL     1      31.271   7.558 -18.621  1.00  0.00    -0.344 N 
HETATM    3  C   UNL     1      31.389   7.470 -19.985  1.00  0.00     0.052 A 
HETATM    4  C   UNL     1      31.795   6.448 -17.998  1.00  0.00     0.087 A 
HETATM    5  C   UNL     1      32.020   6.325 -20.446  1.00  0.00     0.034 A 
HETATM    6  C   UNL     1      30.947   8.428 -20.913  1.00  0.00     0.031 A 
HETATM    7  C   UNL     1      32.234   6.074 -21.799  1.00  0.00     0.028 A 
HETATM    8  C   UNL     1      30.706   8.754 -17.981  1.00  0.00     0.157 C 
HETATM    9  C   UNL     1      31.788   7.027 -22.734  1.00  0.00    -0.061 A 
HETATM   10  C   UNL     1      31.147   8.200 -22.284  1.00  0.00     0.009 A 
HETATM   11  C   UNL     1      31.991   6.808 -24.203  1.00  0.00     0.048 C 
ENDROOT
BRANCH   4  12
HETATM   12  C   UNL     1      31.802   6.117 -16.536  1.00  0.00    -0.002 A 
HETATM   13  C   UNL     1      32.907   6.363 -15.701  1.00  0.00     0.016 A 
HETATM   14  C   UNL     1      32.862   6.059 -14.337  1.00  0.00     0.030 A 
HETATM   15  C   UNL     1      31.707   5.505 -13.748  1.00  0.00     0.029 A 
HETATM   16  C   UNL     1      30.593   5.281 -14.585  1.00  0.00     0.030 A 
HETATM   17  C   UNL     1      30.640   5.590 -15.947  1.00  0.00     0.016 A 
BRANCH  15  18
HETATM   18  N   UNL     1      31.660   5.190 -12.339  1.00  0.00    -0.390 N 
HETATM   19  C   UNL     1      30.399   5.234 -11.611  1.00  0.00     0.149 C 
HETATM   20  C   UNL     1      32.872   4.823 -11.620  1.00  0.00     0.149 C 
ENDBRANCH  15  18
ENDBRANCH   4  12
TORSDOF 2
ENDMDL
