MODEL 1
REMARK VINA RESULT:      -4.7      0.000      0.000
REMARK  15 active torsions:
REMARK  status: ('A' for Active; 'I' for Inactive)
REMARK    1  A    between atoms: O_1  and  C_22 
REMARK    2  A    between atoms: C_3  and  C_4 
REMARK    3  A    between atoms: C_3  and  C_5 
REMARK    4  A    between atoms: C_4  and  C_6 
REMARK    5  A    between atoms: C_5  and  C_7 
REMARK    6  A    between atoms: C_9  and  C_10 
REMARK    7  A    between atoms: C_9  and  C_13 
REMARK    8  A    between atoms: C_10  and  C_14 
REMARK    9  A    between atoms: C_11  and  C_12 
REMARK   10  A    between atoms: C_12  and  C_16 
REMARK   11  A    between atoms: C_13  and  C_22 
REMARK   12  A    between atoms: C_15  and  C_17 
REMARK   13  A    between atoms: C_15  and  C_20 
REMARK   14  A    between atoms: C_18  and  C_19 
REMARK   15  A    between atoms: C_18  and  C_21 
ROOT
HETATM    1  O   UNL     1      32.361 -20.699 -10.064  1.00  0.00    -0.776 OA
HETATM    2  H   UNL     1      32.665 -20.750  -9.147  1.00  0.00     0.167 HD
ENDROOT
BRANCH   1   3
HETATM    3  C   UNL     1      31.048 -20.620 -10.366  1.00  0.00     0.139 C 
HETATM    4  O   UNL     1      30.671 -20.814 -11.513  1.00  0.00    -0.650 OA
BRANCH   3   5
HETATM    5  C   UNL     1      30.052 -20.282  -9.291  1.00  0.00     0.110 C 
BRANCH   5   6
HETATM    6  C   UNL     1      30.728 -19.955  -7.952  1.00  0.00     0.014 C 
BRANCH   6   7
HETATM    7  C   UNL     1      30.341 -18.570  -7.417  1.00  0.00     0.027 C 
BRANCH   7   8
HETATM    8  C   UNL     1      30.039 -17.646  -8.570  1.00  0.00    -0.030 C 
HETATM    9  C   UNL     1      30.797 -16.598  -8.945  1.00  0.00    -0.027 C 
BRANCH   9  10
HETATM   10  C   UNL     1      32.091 -16.179  -8.295  1.00  0.00     0.053 C 
BRANCH  10  11
HETATM   11  C   UNL     1      32.606 -14.884  -8.884  1.00  0.00    -0.027 C 
HETATM   12  C   UNL     1      32.812 -13.715  -8.242  1.00  0.00    -0.027 C 
BRANCH  12  13
HETATM   13  C   UNL     1      32.595 -13.434  -6.777  1.00  0.00     0.053 C 
BRANCH  13  14
HETATM   14  C   UNL     1      32.559 -11.943  -6.537  1.00  0.00    -0.027 C 
HETATM   15  C   UNL     1      31.738 -11.319  -5.668  1.00  0.00    -0.027 C 
BRANCH  15  16
HETATM   16  C   UNL     1      30.714 -12.016  -4.811  1.00  0.00     0.053 C 
BRANCH  16  17
HETATM   17  C   UNL     1      29.310 -11.629  -5.203  1.00  0.00    -0.027 C 
HETATM   18  C   UNL     1      28.527 -12.364  -6.012  1.00  0.00    -0.030 C 
BRANCH  18  19
HETATM   19  C   UNL     1      28.936 -13.666  -6.653  1.00  0.00     0.027 C 
BRANCH  19  20
HETATM   20  C   UNL     1      28.715 -13.587  -8.167  1.00  0.00     0.004 C 
BRANCH  20  21
HETATM   21  C   UNL     1      29.610 -12.517  -8.802  1.00  0.00    -0.000 C 
BRANCH  21  22
HETATM   22  C   UNL     1      29.110 -12.149 -10.204  1.00  0.00    -0.005 C 
HETATM   23  C   UNL     1      30.235 -12.235 -11.231  1.00  0.00     0.005 C 
ENDBRANCH  21  22
ENDBRANCH  20  21
ENDBRANCH  19  20
ENDBRANCH  18  19
ENDBRANCH  16  17
ENDBRANCH  15  16
ENDBRANCH  13  14
ENDBRANCH  12  13
ENDBRANCH  10  11
ENDBRANCH   9  10
ENDBRANCH   7   8
ENDBRANCH   6   7
ENDBRANCH   5   6
ENDBRANCH   3   5
ENDBRANCH   1   3
TORSDOF 15
ENDMDL
MODEL 2
REMARK VINA RESULT:      -4.7     24.376     27.445
REMARK  15 active torsions:
REMARK  status: ('A' for Active; 'I' for Inactive)
REMARK    1  A    between atoms: O_1  and  C_22 
REMARK    2  A    between atoms: C_3  and  C_4 
REMARK    3  A    between atoms: C_3  and  C_5 
REMARK    4  A    between atoms: C_4  and  C_6 
REMARK    5  A    between atoms: C_5  and  C_7 
REMARK    6  A    between atoms: C_9  and  C_10 
REMARK    7  A    between atoms: C_9  and  C_13 
REMARK    8  A    between atoms: C_10  and  C_14 
REMARK    9  A    between atoms: C_11  and  C_12 
REMARK   10  A    between atoms: C_12  and  C_16 
REMARK   11  A    between atoms: C_13  and  C_22 
REMARK   12  A    between atoms: C_15  and  C_17 
REMARK   13  A    between atoms: C_15  and  C_20 
REMARK   14  A    between atoms: C_18  and  C_19 
REMARK   15  A    between atoms: C_18  and  C_21 
ROOT
HETATM    1  O   UNL     1      38.657   6.087 -10.130  1.00  0.00    -0.776 OA
HETATM    2  H   UNL     1      38.372   5.248  -9.741  1.00  0.00     0.167 HD
ENDROOT
BRANCH   1   3
HETATM    3  C   UNL     1      39.165   7.078  -9.367  1.00  0.00     0.139 C 
HETATM    4  O   UNL     1      39.325   6.907  -8.167  1.00  0.00    -0.650 OA
BRANCH   3   5
HETATM    5  C   UNL     1      39.524   8.396  -9.996  1.00  0.00     0.110 C 
BRANCH   5   6
HETATM    6  C   UNL     1      40.899   8.906  -9.540  1.00  0.00     0.014 C 
BRANCH   6   7
HETATM    7  C   UNL     1      41.004  10.436  -9.572  1.00  0.00     0.027 C 
BRANCH   7   8
HETATM    8  C   UNL     1      40.209  10.975 -10.735  1.00  0.00    -0.030 C 
HETATM    9  C   UNL     1      40.673  11.126 -11.990  1.00  0.00    -0.027 C 
BRANCH   9  10
HETATM   10  C   UNL     1      42.058  10.759 -12.459  1.00  0.00     0.053 C 
BRANCH  10  11
HETATM   11  C   UNL     1      42.028  10.184 -13.858  1.00  0.00    -0.027 C 
HETATM   12  C   UNL     1      41.314   9.126 -14.295  1.00  0.00    -0.027 C 
BRANCH  12  13
HETATM   13  C   UNL     1      40.360   8.280 -13.490  1.00  0.00     0.053 C 
BRANCH  13  14
HETATM   14  C   UNL     1      38.976   8.351 -14.090  1.00  0.00    -0.027 C 
HETATM   15  C   UNL     1      38.612   7.797 -15.264  1.00  0.00    -0.027 C 
BRANCH  15  16
HETATM   16  C   UNL     1      39.541   7.033 -16.172  1.00  0.00     0.053 C 
BRANCH  16  17
HETATM   17  C   UNL     1      39.218   7.277 -17.625  1.00  0.00    -0.027 C 
HETATM   18  C   UNL     1      39.759   8.266 -18.357  1.00  0.00    -0.030 C 
BRANCH  18  19
HETATM   19  C   UNL     1      40.750   9.277 -17.838  1.00  0.00     0.027 C 
BRANCH  19  20
HETATM   20  C   UNL     1      40.021  10.576 -17.480  1.00  0.00     0.004 C 
BRANCH  20  21
HETATM   21  C   UNL     1      41.004  11.655 -17.015  1.00  0.00    -0.000 C 
BRANCH  21  22
HETATM   22  C   UNL     1      40.384  12.521 -15.913  1.00  0.00    -0.005 C 
HETATM   23  C   UNL     1      39.037  11.961 -15.464  1.00  0.00     0.005 C 
ENDBRANCH  21  22
ENDBRANCH  20  21
ENDBRANCH  19  20
ENDBRANCH  18  19
ENDBRANCH  16  17
ENDBRANCH  15  16
ENDBRANCH  13  14
ENDBRANCH  12  13
ENDBRANCH  10  11
ENDBRANCH   9  10
ENDBRANCH   7   8
ENDBRANCH   6   7
ENDBRANCH   5   6
ENDBRANCH   3   5
ENDBRANCH   1   3
TORSDOF 15
ENDMDL
MODEL 3
REMARK VINA RESULT:      -4.6      3.005      5.091
REMARK  15 active torsions:
REMARK  status: ('A' for Active; 'I' for Inactive)
REMARK    1  A    between atoms: O_1  and  C_22 
REMARK    2  A    between atoms: C_3  and  C_4 
REMARK    3  A    between atoms: C_3  and  C_5 
REMARK    4  A    between atoms: C_4  and  C_6 
REMARK    5  A    between atoms: C_5  and  C_7 
REMARK    6  A    between atoms: C_9  and  C_10 
REMARK    7  A    between atoms: C_9  and  C_13 
REMARK    8  A    between atoms: C_10  and  C_14 
REMARK    9  A    between atoms: C_11  and  C_12 
REMARK   10  A    between atoms: C_12  and  C_16 
REMARK   11  A    between atoms: C_13  and  C_22 
REMARK   12  A    between atoms: C_15  and  C_17 
REMARK   13  A    between atoms: C_15  and  C_20 
REMARK   14  A    between atoms: C_18  and  C_19 
REMARK   15  A    between atoms: C_18  and  C_21 
ROOT
HETATM    1  O   UNL     1      31.896 -21.058 -14.871  1.00  0.00    -0.776 OA
HETATM    2  H   UNL     1      32.814 -21.225 -15.125  1.00  0.00     0.167 HD
ENDROOT
BRANCH   1   3
HETATM    3  C   UNL     1      31.056 -20.377 -15.678  1.00  0.00     0.139 C 
HETATM    4  O   UNL     1      30.809 -20.797 -16.800  1.00  0.00    -0.650 OA
BRANCH   3   5
HETATM    5  C   UNL     1      30.434 -19.095 -15.199  1.00  0.00     0.110 C 
BRANCH   5   6
HETATM    6  C   UNL     1      29.658 -19.277 -13.887  1.00  0.00     0.014 C 
BRANCH   6   7
HETATM    7  C   UNL     1      30.143 -18.336 -12.776  1.00  0.00     0.027 C 
BRANCH   7   8
HETATM    8  C   UNL     1      30.552 -19.143 -11.570  1.00  0.00    -0.030 C 
HETATM    9  C   UNL     1      30.808 -18.637 -10.348  1.00  0.00    -0.027 C 
BRANCH   9  10
HETATM   10  C   UNL     1      30.708 -17.182  -9.966  1.00  0.00     0.053 C 
BRANCH  10  11
HETATM   11  C   UNL     1      31.730 -16.821  -8.910  1.00  0.00    -0.027 C 
HETATM   12  C   UNL     1      32.475 -15.700  -8.839  1.00  0.00    -0.027 C 
BRANCH  12  13
HETATM   13  C   UNL     1      32.448 -14.530  -9.790  1.00  0.00     0.053 C 
BRANCH  13  14
HETATM   14  C   UNL     1      33.579 -14.647 -10.785  1.00  0.00    -0.027 C 
HETATM   15  C   UNL     1      33.436 -14.991 -12.081  1.00  0.00    -0.027 C 
BRANCH  15  16
HETATM   16  C   UNL     1      32.122 -15.330 -12.734  1.00  0.00     0.053 C 
BRANCH  16  17
HETATM   17  C   UNL     1      31.408 -14.092 -13.216  1.00  0.00    -0.027 C 
HETATM   18  C   UNL     1      30.108 -13.839 -12.987  1.00  0.00    -0.030 C 
BRANCH  18  19
HETATM   19  C   UNL     1      29.174 -14.751 -12.232  1.00  0.00     0.027 C 
BRANCH  19  20
HETATM   20  C   UNL     1      28.102 -13.918 -11.523  1.00  0.00     0.004 C 
BRANCH  20  21
HETATM   21  C   UNL     1      28.376 -13.827 -10.018  1.00  0.00    -0.000 C 
BRANCH  21  22
HETATM   22  C   UNL     1      29.087 -12.514  -9.670  1.00  0.00    -0.005 C 
HETATM   23  C   UNL     1      29.744 -12.590  -8.295  1.00  0.00     0.005 C 
ENDBRANCH  21  22
ENDBRANCH  20  21
ENDBRANCH  19  20
ENDBRANCH  18  19
ENDBRANCH  16  17
ENDBRANCH  15  16
ENDBRANCH  13  14
ENDBRANCH  12  13
ENDBRANCH  10  11
ENDBRANCH   9  10
ENDBRANCH   7   8
ENDBRANCH   6   7
ENDBRANCH   5   6
ENDBRANCH   3   5
ENDBRANCH   1   3
TORSDOF 15
ENDMDL
MODEL 4
REMARK VINA RESULT:      -4.6      3.411      6.271
REMARK  15 active torsions:
REMARK  status: ('A' for Active; 'I' for Inactive)
REMARK    1  A    between atoms: O_1  and  C_22 
REMARK    2  A    between atoms: C_3  and  C_4 
REMARK    3  A    between atoms: C_3  and  C_5 
REMARK    4  A    between atoms: C_4  and  C_6 
REMARK    5  A    between atoms: C_5  and  C_7 
REMARK    6  A    between atoms: C_9  and  C_10 
REMARK    7  A    between atoms: C_9  and  C_13 
REMARK    8  A    between atoms: C_10  and  C_14 
REMARK    9  A    between atoms: C_11  and  C_12 
REMARK   10  A    between atoms: C_12  and  C_16 
REMARK   11  A    between atoms: C_13  and  C_22 
REMARK   12  A    between atoms: C_15  and  C_17 
REMARK   13  A    between atoms: C_15  and  C_20 
REMARK   14  A    between atoms: C_18  and  C_19 
REMARK   15  A    between atoms: C_18  and  C_21 
ROOT
HETATM    1  O   UNL     1      29.850 -21.057 -13.873  1.00  0.00    -0.776 OA
HETATM    2  H   UNL     1      29.204 -21.724 -13.600  1.00  0.00     0.167 HD
ENDROOT
BRANCH   1   3
HETATM    3  C   UNL     1      30.492 -20.287 -12.969  1.00  0.00     0.139 C 
HETATM    4  O   UNL     1      30.851 -20.766 -11.903  1.00  0.00    -0.650 OA
BRANCH   3   5
HETATM    5  C   UNL     1      30.752 -18.837 -13.271  1.00  0.00     0.110 C 
BRANCH   5   6
HETATM    6  C   UNL     1      30.189 -17.905 -12.190  1.00  0.00     0.014 C 
BRANCH   6   7
HETATM    7  C   UNL     1      30.222 -16.428 -12.606  1.00  0.00     0.027 C 
BRANCH   7   8
HETATM    8  C   UNL     1      30.210 -16.324 -14.111  1.00  0.00    -0.030 C 
HETATM    9  C   UNL     1      29.397 -15.526 -14.828  1.00  0.00    -0.027 C 
BRANCH   9  10
HETATM   10  C   UNL     1      28.373 -14.579 -14.254  1.00  0.00     0.053 C 
BRANCH  10  11
HETATM   11  C   UNL     1      27.823 -13.656 -15.318  1.00  0.00    -0.027 C 
HETATM   12  C   UNL     1      28.259 -12.420 -15.637  1.00  0.00    -0.027 C 
BRANCH  12  13
HETATM   13  C   UNL     1      29.414 -11.677 -15.016  1.00  0.00     0.053 C 
BRANCH  13  14
HETATM   14  C   UNL     1      30.711 -12.104 -15.661  1.00  0.00    -0.027 C 
HETATM   15  C   UNL     1      31.787 -12.576 -14.998  1.00  0.00    -0.027 C 
BRANCH  15  16
HETATM   16  C   UNL     1      31.865 -12.735 -13.502  1.00  0.00     0.053 C 
BRANCH  16  17
HETATM   17  C   UNL     1      32.636 -11.605 -12.867  1.00  0.00    -0.027 C 
HETATM   18  C   UNL     1      32.894 -11.520 -11.550  1.00  0.00    -0.030 C 
BRANCH  18  19
HETATM   19  C   UNL     1      32.445 -12.525 -10.519  1.00  0.00     0.027 C 
BRANCH  19  20
HETATM   20  C   UNL     1      31.718 -11.804  -9.380  1.00  0.00     0.004 C 
BRANCH  20  21
HETATM   21  C   UNL     1      30.259 -12.263  -9.275  1.00  0.00    -0.000 C 
BRANCH  21  22
HETATM   22  C   UNL     1      29.375 -11.504 -10.272  1.00  0.00    -0.005 C 
HETATM   23  C   UNL     1      28.873 -12.428 -11.378  1.00  0.00     0.005 C 
ENDBRANCH  21  22
ENDBRANCH  20  21
ENDBRANCH  19  20
ENDBRANCH  18  19
ENDBRANCH  16  17
ENDBRANCH  15  16
ENDBRANCH  13  14
ENDBRANCH  12  13
ENDBRANCH  10  11
ENDBRANCH   9  10
ENDBRANCH   7   8
ENDBRANCH   6   7
ENDBRANCH   5   6
ENDBRANCH   3   5
ENDBRANCH   1   3
TORSDOF 15
ENDMDL
MODEL 5
REMARK VINA RESULT:      -4.6     26.157     29.088
REMARK  15 active torsions:
REMARK  status: ('A' for Active; 'I' for Inactive)
REMARK    1  A    between atoms: O_1  and  C_22 
REMARK    2  A    between atoms: C_3  and  C_4 
REMARK    3  A    between atoms: C_3  and  C_5 
REMARK    4  A    between atoms: C_4  and  C_6 
REMARK    5  A    between atoms: C_5  and  C_7 
REMARK    6  A    between atoms: C_9  and  C_10 
REMARK    7  A    between atoms: C_9  and  C_13 
REMARK    8  A    between atoms: C_10  and  C_14 
REMARK    9  A    between atoms: C_11  and  C_12 
REMARK   10  A    between atoms: C_12  and  C_16 
REMARK   11  A    between atoms: C_13  and  C_22 
REMARK   12  A    between atoms: C_15  and  C_17 
REMARK   13  A    between atoms: C_15  and  C_20 
REMARK   14  A    between atoms: C_18  and  C_19 
REMARK   15  A    between atoms: C_18  and  C_21 
ROOT
HETATM    1  O   UNL     1      43.200  13.893 -16.931  1.00  0.00    -0.776 OA
HETATM    2  H   UNL     1      43.109  14.333 -17.788  1.00  0.00     0.167 HD
ENDROOT
BRANCH   1   3
HETATM    3  C   UNL     1      42.974  12.570 -16.792  1.00  0.00     0.139 C 
HETATM    4  O   UNL     1      42.910  12.074 -15.676  1.00  0.00    -0.650 OA
BRANCH   3   5
HETATM    5  C   UNL     1      42.815  11.706 -18.012  1.00  0.00     0.110 C 
BRANCH   5   6
HETATM    6  C   UNL     1      41.350  11.327 -18.272  1.00  0.00     0.014 C 
BRANCH   6   7
HETATM    7  C   UNL     1      40.975   9.966 -17.671  1.00  0.00     0.027 C 
BRANCH   7   8
HETATM    8  C   UNL     1      41.190   8.881 -18.696  1.00  0.00    -0.030 C 
HETATM    9  C   UNL     1      40.387   7.816 -18.879  1.00  0.00    -0.027 C 
BRANCH   9  10
HETATM   10  C   UNL     1      39.122   7.532 -18.109  1.00  0.00     0.053 C 
BRANCH  10  11
HETATM   11  C   UNL     1      39.429   7.066 -16.703  1.00  0.00    -0.027 C 
HETATM   12  C   UNL     1      38.763   7.376 -15.572  1.00  0.00    -0.027 C 
BRANCH  12  13
HETATM   13  C   UNL     1      37.539   8.248 -15.450  1.00  0.00     0.053 C 
BRANCH  13  14
HETATM   14  C   UNL     1      37.949   9.684 -15.224  1.00  0.00    -0.027 C 
HETATM   15  C   UNL     1      37.705  10.701 -16.076  1.00  0.00    -0.027 C 
BRANCH  15  16
HETATM   16  C   UNL     1      36.998  10.557 -17.398  1.00  0.00     0.053 C 
BRANCH  16  17
HETATM   17  C   UNL     1      37.753  11.246 -18.507  1.00  0.00    -0.027 C 
HETATM   18  C   UNL     1      37.722  10.854 -19.792  1.00  0.00    -0.030 C 
BRANCH  18  19
HETATM   19  C   UNL     1      36.945   9.670 -20.311  1.00  0.00     0.027 C 
BRANCH  19  20
HETATM   20  C   UNL     1      37.805   8.887 -21.308  1.00  0.00     0.004 C 
BRANCH  20  21
HETATM   21  C   UNL     1      39.034   9.696 -21.736  1.00  0.00    -0.000 C 
BRANCH  21  22
HETATM   22  C   UNL     1      40.087   8.789 -22.384  1.00  0.00    -0.005 C 
HETATM   23  C   UNL     1      39.524   7.397 -22.653  1.00  0.00     0.005 C 
ENDBRANCH  21  22
ENDBRANCH  20  21
ENDBRANCH  19  20
ENDBRANCH  18  19
ENDBRANCH  16  17
ENDBRANCH  15  16
ENDBRANCH  13  14
ENDBRANCH  12  13
ENDBRANCH  10  11
ENDBRANCH   9  10
ENDBRANCH   7   8
ENDBRANCH   6   7
ENDBRANCH   5   6
ENDBRANCH   3   5
ENDBRANCH   1   3
TORSDOF 15
ENDMDL
MODEL 6
REMARK VINA RESULT:      -4.6     25.016     27.545
REMARK  15 active torsions:
REMARK  status: ('A' for Active; 'I' for Inactive)
REMARK    1  A    between atoms: O_1  and  C_22 
REMARK    2  A    between atoms: C_3  and  C_4 
REMARK    3  A    between atoms: C_3  and  C_5 
REMARK    4  A    between atoms: C_4  and  C_6 
REMARK    5  A    between atoms: C_5  and  C_7 
REMARK    6  A    between atoms: C_9  and  C_10 
REMARK    7  A    between atoms: C_9  and  C_13 
REMARK    8  A    between atoms: C_10  and  C_14 
REMARK    9  A    between atoms: C_11  and  C_12 
REMARK   10  A    between atoms: C_12  and  C_16 
REMARK   11  A    between atoms: C_13  and  C_22 
REMARK   12  A    between atoms: C_15  and  C_17 
REMARK   13  A    between atoms: C_15  and  C_20 
REMARK   14  A    between atoms: C_18  and  C_19 
REMARK   15  A    between atoms: C_18  and  C_21 
ROOT
HETATM    1  O   UNL     1      42.991  11.297  -9.274  1.00  0.00    -0.776 OA
HETATM    2  H   UNL     1      42.892  12.240  -9.467  1.00  0.00     0.167 HD
ENDROOT
BRANCH   1   3
HETATM    3  C   UNL     1      42.245  10.690  -8.327  1.00  0.00     0.139 C 
HETATM    4  O   UNL     1      42.175  11.166  -7.204  1.00  0.00    -0.650 OA
BRANCH   3   5
HETATM    5  C   UNL     1      41.508   9.421  -8.656  1.00  0.00     0.110 C 
BRANCH   5   6
HETATM    6  C   UNL     1      40.181   9.301  -7.893  1.00  0.00     0.014 C 
BRANCH   6   7
HETATM    7  C   UNL     1      39.417   8.014  -8.233  1.00  0.00     0.027 C 
BRANCH   7   8
HETATM    8  C   UNL     1      38.268   8.335  -9.155  1.00  0.00    -0.030 C 
HETATM    9  C   UNL     1      38.161   7.927 -10.434  1.00  0.00    -0.027 C 
BRANCH   9  10
HETATM   10  C   UNL     1      39.157   7.058 -11.160  1.00  0.00     0.053 C 
BRANCH  10  11
HETATM   11  C   UNL     1      40.015   7.877 -12.099  1.00  0.00    -0.027 C 
HETATM   12  C   UNL     1      39.968   7.897 -13.447  1.00  0.00    -0.027 C 
BRANCH  12  13
HETATM   13  C   UNL     1      39.029   7.119 -14.334  1.00  0.00     0.053 C 
BRANCH  13  14
HETATM   14  C   UNL     1      38.306   8.058 -15.270  1.00  0.00    -0.027 C 
HETATM   15  C   UNL     1      38.461   8.085 -16.610  1.00  0.00    -0.027 C 
BRANCH  15  16
HETATM   16  C   UNL     1      39.397   7.190 -17.380  1.00  0.00     0.053 C 
BRANCH  16  17
HETATM   17  C   UNL     1      39.261   7.398 -18.867  1.00  0.00    -0.027 C 
HETATM   18  C   UNL     1      40.142   8.090 -19.611  1.00  0.00    -0.030 C 
BRANCH  18  19
HETATM   19  C   UNL     1      41.379   8.766 -19.073  1.00  0.00     0.027 C 
BRANCH  19  20
HETATM   20  C   UNL     1      41.094  10.254 -18.845  1.00  0.00     0.004 C 
BRANCH  20  21
HETATM   21  C   UNL     1      41.937  10.809 -17.692  1.00  0.00    -0.000 C 
BRANCH  21  22
HETATM   22  C   UNL     1      41.042  11.299 -16.548  1.00  0.00    -0.005 C 
HETATM   23  C   UNL     1      39.583  11.386 -16.987  1.00  0.00     0.005 C 
ENDBRANCH  21  22
ENDBRANCH  20  21
ENDBRANCH  19  20
ENDBRANCH  18  19
ENDBRANCH  16  17
ENDBRANCH  15  16
ENDBRANCH  13  14
ENDBRANCH  12  13
ENDBRANCH  10  11
ENDBRANCH   9  10
ENDBRANCH   7   8
ENDBRANCH   6   7
ENDBRANCH   5   6
ENDBRANCH   3   5
ENDBRANCH   1   3
TORSDOF 15
ENDMDL
MODEL 7
REMARK VINA RESULT:      -4.6      6.581      9.591
REMARK  15 active torsions:
REMARK  status: ('A' for Active; 'I' for Inactive)
REMARK    1  A    between atoms: O_1  and  C_22 
REMARK    2  A    between atoms: C_3  and  C_4 
REMARK    3  A    between atoms: C_3  and  C_5 
REMARK    4  A    between atoms: C_4  and  C_6 
REMARK    5  A    between atoms: C_5  and  C_7 
REMARK    6  A    between atoms: C_9  and  C_10 
REMARK    7  A    between atoms: C_9  and  C_13 
REMARK    8  A    between atoms: C_10  and  C_14 
REMARK    9  A    between atoms: C_11  and  C_12 
REMARK   10  A    between atoms: C_12  and  C_16 
REMARK   11  A    between atoms: C_13  and  C_22 
REMARK   12  A    between atoms: C_15  and  C_17 
REMARK   13  A    between atoms: C_15  and  C_20 
REMARK   14  A    between atoms: C_18  and  C_19 
REMARK   15  A    between atoms: C_18  and  C_21 
ROOT
HETATM    1  O   UNL     1      29.873 -21.043  -8.772  1.00  0.00    -0.776 OA
HETATM    2  H   UNL     1      30.218 -21.859  -9.162  1.00  0.00     0.167 HD
ENDROOT
BRANCH   1   3
HETATM    3  C   UNL     1      29.977 -19.859  -9.413  1.00  0.00     0.139 C 
HETATM    4  O   UNL     1      29.382 -18.879  -8.989  1.00  0.00    -0.650 OA
BRANCH   3   5
HETATM    5  C   UNL     1      30.817 -19.753 -10.655  1.00  0.00     0.110 C 
BRANCH   5   6
HETATM    6  C   UNL     1      30.527 -18.471 -11.448  1.00  0.00     0.014 C 
BRANCH   6   7
HETATM    7  C   UNL     1      30.080 -18.754 -12.888  1.00  0.00     0.027 C 
BRANCH   7   8
HETATM    8  C   UNL     1      30.788 -19.980 -13.408  1.00  0.00    -0.030 C 
HETATM    9  C   UNL     1      30.958 -20.285 -14.709  1.00  0.00    -0.027 C 
BRANCH   9  10
HETATM   10  C   UNL     1      30.493 -19.446 -15.872  1.00  0.00     0.053 C 
BRANCH  10  11
HETATM   11  C   UNL     1      30.875 -20.079 -17.192  1.00  0.00    -0.027 C 
HETATM   12  C   UNL     1      30.691 -19.572 -18.428  1.00  0.00    -0.027 C 
BRANCH  12  13
HETATM   13  C   UNL     1      30.076 -18.242 -18.782  1.00  0.00     0.053 C 
BRANCH  13  14
HETATM   14  C   UNL     1      31.098 -17.365 -19.466  1.00  0.00    -0.027 C 
HETATM   15  C   UNL     1      31.867 -16.445 -18.848  1.00  0.00    -0.027 C 
BRANCH  15  16
HETATM   16  C   UNL     1      31.812 -16.138 -17.375  1.00  0.00     0.053 C 
BRANCH  16  17
HETATM   17  C   UNL     1      31.669 -14.657 -17.124  1.00  0.00    -0.027 C 
HETATM   18  C   UNL     1      30.488 -14.033 -16.969  1.00  0.00    -0.030 C 
BRANCH  18  19
HETATM   19  C   UNL     1      29.142 -14.711 -17.033  1.00  0.00     0.027 C 
BRANCH  19  20
HETATM   20  C   UNL     1      28.530 -14.508 -18.423  1.00  0.00     0.004 C 
BRANCH  20  21
HETATM   21  C   UNL     1      29.028 -13.208 -19.064  1.00  0.00    -0.000 C 
BRANCH  21  22
HETATM   22  C   UNL     1      29.345 -13.417 -20.549  1.00  0.00    -0.005 C 
HETATM   23  C   UNL     1      28.918 -14.806 -21.013  1.00  0.00     0.005 C 
ENDBRANCH  21  22
ENDBRANCH  20  21
ENDBRANCH  19  20
ENDBRANCH  18  19
ENDBRANCH  16  17
ENDBRANCH  15  16
ENDBRANCH  13  14
ENDBRANCH  12  13
ENDBRANCH  10  11
ENDBRANCH   9  10
ENDBRANCH   7   8
ENDBRANCH   6   7
ENDBRANCH   5   6
ENDBRANCH   3   5
ENDBRANCH   1   3
TORSDOF 15
ENDMDL
MODEL 8
REMARK VINA RESULT:      -4.5      2.646      4.456
REMARK  15 active torsions:
REMARK  status: ('A' for Active; 'I' for Inactive)
REMARK    1  A    between atoms: O_1  and  C_22 
REMARK    2  A    between atoms: C_3  and  C_4 
REMARK    3  A    between atoms: C_3  and  C_5 
REMARK    4  A    between atoms: C_4  and  C_6 
REMARK    5  A    between atoms: C_5  and  C_7 
REMARK    6  A    between atoms: C_9  and  C_10 
REMARK    7  A    between atoms: C_9  and  C_13 
REMARK    8  A    between atoms: C_10  and  C_14 
REMARK    9  A    between atoms: C_11  and  C_12 
REMARK   10  A    between atoms: C_12  and  C_16 
REMARK   11  A    between atoms: C_13  and  C_22 
REMARK   12  A    between atoms: C_15  and  C_17 
REMARK   13  A    between atoms: C_15  and  C_20 
REMARK   14  A    between atoms: C_18  and  C_19 
REMARK   15  A    between atoms: C_18  and  C_21 
ROOT
HETATM    1  O   UNL     1      31.764 -21.081 -10.144  1.00  0.00    -0.776 OA
HETATM    2  H   UNL     1      31.982 -20.762  -9.257  1.00  0.00     0.167 HD
ENDROOT
BRANCH   1   3
HETATM    3  C   UNL     1      31.032 -20.337 -11.000  1.00  0.00     0.139 C 
HETATM    4  O   UNL     1      30.756 -20.771 -12.108  1.00  0.00    -0.650 OA
BRANCH   3   5
HETATM    5  C   UNL     1      30.568 -18.966 -10.589  1.00  0.00     0.110 C 
BRANCH   5   6
HETATM    6  C   UNL     1      30.239 -18.075 -11.796  1.00  0.00     0.014 C 
BRANCH   6   7
HETATM    7  C   UNL     1      31.255 -16.942 -11.989  1.00  0.00     0.027 C 
BRANCH   7   8
HETATM    8  C   UNL     1      30.907 -16.154 -13.226  1.00  0.00    -0.030 C 
HETATM    9  C   UNL     1      30.876 -14.810 -13.308  1.00  0.00    -0.027 C 
BRANCH   9  10
HETATM   10  C   UNL     1      31.206 -13.858 -12.186  1.00  0.00     0.053 C 
BRANCH  10  11
HETATM   11  C   UNL     1      30.064 -12.901 -11.925  1.00  0.00    -0.027 C 
HETATM   12  C   UNL     1      29.941 -12.030 -10.902  1.00  0.00    -0.027 C 
BRANCH  12  13
HETATM   13  C   UNL     1      30.928 -11.794  -9.788  1.00  0.00     0.053 C 
BRANCH  13  14
HETATM   14  C   UNL     1      32.044 -10.896 -10.268  1.00  0.00    -0.027 C 
HETATM   15  C   UNL     1      33.359 -11.124 -10.071  1.00  0.00    -0.027 C 
BRANCH  15  16
HETATM   16  C   UNL     1      33.918 -12.307  -9.324  1.00  0.00     0.053 C 
BRANCH  16  17
HETATM   17  C   UNL     1      34.308 -13.420 -10.264  1.00  0.00    -0.027 C 
HETATM   18  C   UNL     1      34.259 -14.725  -9.943  1.00  0.00    -0.030 C 
BRANCH  18  19
HETATM   19  C   UNL     1      33.822 -15.265  -8.604  1.00  0.00     0.027 C 
BRANCH  19  20
HETATM   20  C   UNL     1      32.503 -16.027  -8.762  1.00  0.00     0.004 C 
BRANCH  20  21
HETATM   21  C   UNL     1      31.299 -15.091  -8.609  1.00  0.00    -0.000 C 
BRANCH  21  22
HETATM   22  C   UNL     1      29.994 -15.890  -8.511  1.00  0.00    -0.005 C 
HETATM   23  C   UNL     1      28.955 -15.372  -9.500  1.00  0.00     0.005 C 
ENDBRANCH  21  22
ENDBRANCH  20  21
ENDBRANCH  19  20
ENDBRANCH  18  19
ENDBRANCH  16  17
ENDBRANCH  15  16
ENDBRANCH  13  14
ENDBRANCH  12  13
ENDBRANCH  10  11
ENDBRANCH   9  10
ENDBRANCH   7   8
ENDBRANCH   6   7
ENDBRANCH   5   6
ENDBRANCH   3   5
ENDBRANCH   1   3
TORSDOF 15
ENDMDL
MODEL 9
REMARK VINA RESULT:      -4.5      1.953      4.340
REMARK  15 active torsions:
REMARK  status: ('A' for Active; 'I' for Inactive)
REMARK    1  A    between atoms: O_1  and  C_22 
REMARK    2  A    between atoms: C_3  and  C_4 
REMARK    3  A    between atoms: C_3  and  C_5 
REMARK    4  A    between atoms: C_4  and  C_6 
REMARK    5  A    between atoms: C_5  and  C_7 
REMARK    6  A    between atoms: C_9  and  C_10 
REMARK    7  A    between atoms: C_9  and  C_13 
REMARK    8  A    between atoms: C_10  and  C_14 
REMARK    9  A    between atoms: C_11  and  C_12 
REMARK   10  A    between atoms: C_12  and  C_16 
REMARK   11  A    between atoms: C_13  and  C_22 
REMARK   12  A    between atoms: C_15  and  C_17 
REMARK   13  A    between atoms: C_15  and  C_20 
REMARK   14  A    between atoms: C_18  and  C_19 
REMARK   15  A    between atoms: C_18  and  C_21 
ROOT
HETATM    1  O   UNL     1      32.130 -21.021  -9.752  1.00  0.00    -0.776 OA
HETATM    2  H   UNL     1      32.660 -20.417  -9.214  1.00  0.00     0.167 HD
ENDROOT
BRANCH   1   3
HETATM    3  C   UNL     1      30.931 -20.649 -10.250  1.00  0.00     0.139 C 
HETATM    4  O   UNL     1      30.698 -20.776 -11.444  1.00  0.00    -0.650 OA
BRANCH   3   5
HETATM    5  C   UNL     1      29.889 -20.069  -9.335  1.00  0.00     0.110 C 
BRANCH   5   6
HETATM    6  C   UNL     1      30.029 -18.548  -9.180  1.00  0.00     0.014 C 
BRANCH   6   7
HETATM    7  C   UNL     1      30.239 -18.119  -7.722  1.00  0.00     0.027 C 
BRANCH   7   8
HETATM    8  C   UNL     1      31.175 -16.937  -7.670  1.00  0.00    -0.030 C 
HETATM    9  C   UNL     1      30.794 -15.646  -7.634  1.00  0.00    -0.027 C 
BRANCH   9  10
HETATM   10  C   UNL     1      29.369 -15.155  -7.615  1.00  0.00     0.053 C 
BRANCH  10  11
HETATM   11  C   UNL     1      29.301 -13.681  -7.284  1.00  0.00    -0.027 C 
HETATM   12  C   UNL     1      29.621 -12.644  -8.087  1.00  0.00    -0.027 C 
BRANCH  12  13
HETATM   13  C   UNL     1      30.103 -12.716  -9.513  1.00  0.00     0.053 C 
BRANCH  13  14
HETATM   14  C   UNL     1      28.930 -12.621 -10.461  1.00  0.00    -0.027 C 
HETATM   15  C   UNL     1      28.363 -13.666 -11.097  1.00  0.00    -0.027 C 
BRANCH  15  16
HETATM   16  C   UNL     1      28.826 -15.094 -10.973  1.00  0.00     0.053 C 
BRANCH  16  17
HETATM   17  C   UNL     1      29.527 -15.559 -12.225  1.00  0.00    -0.027 C 
HETATM   18  C   UNL     1      30.831 -15.883 -12.279  1.00  0.00    -0.030 C 
BRANCH  18  19
HETATM   19  C   UNL     1      31.781 -15.818 -11.110  1.00  0.00     0.027 C 
BRANCH  19  20
HETATM   20  C   UNL     1      32.626 -14.543 -11.203  1.00  0.00     0.004 C 
BRANCH  20  21
HETATM   21  C   UNL     1      32.677 -14.016 -12.641  1.00  0.00    -0.000 C 
BRANCH  21  22
HETATM   22  C   UNL     1      32.262 -12.540 -12.696  1.00  0.00    -0.005 C 
HETATM   23  C   UNL     1      31.027 -12.348 -13.571  1.00  0.00     0.005 C 
ENDBRANCH  21  22
ENDBRANCH  20  21
ENDBRANCH  19  20
ENDBRANCH  18  19
ENDBRANCH  16  17
ENDBRANCH  15  16
ENDBRANCH  13  14
ENDBRANCH  12  13
ENDBRANCH  10  11
ENDBRANCH   9  10
ENDBRANCH   7   8
ENDBRANCH   6   7
ENDBRANCH   5   6
ENDBRANCH   3   5
ENDBRANCH   1   3
TORSDOF 15
ENDMDL
MODEL 10
REMARK VINA RESULT:      -4.5     25.419     28.433
REMARK  15 active torsions:
REMARK  status: ('A' for Active; 'I' for Inactive)
REMARK    1  A    between atoms: O_1  and  C_22 
REMARK    2  A    between atoms: C_3  and  C_4 
REMARK    3  A    between atoms: C_3  and  C_5 
REMARK    4  A    between atoms: C_4  and  C_6 
REMARK    5  A    between atoms: C_5  and  C_7 
REMARK    6  A    between atoms: C_9  and  C_10 
REMARK    7  A    between atoms: C_9  and  C_13 
REMARK    8  A    between atoms: C_10  and  C_14 
REMARK    9  A    between atoms: C_11  and  C_12 
REMARK   10  A    between atoms: C_12  and  C_16 
REMARK   11  A    between atoms: C_13  and  C_22 
REMARK   12  A    between atoms: C_15  and  C_17 
REMARK   13  A    between atoms: C_15  and  C_20 
REMARK   14  A    between atoms: C_18  and  C_19 
REMARK   15  A    between atoms: C_18  and  C_21 
ROOT
HETATM    1  O   UNL     1      39.605   6.714 -13.192  1.00  0.00    -0.776 OA
HETATM    2  H   UNL     1      39.017   6.914 -12.450  1.00  0.00     0.167 HD
ENDROOT
BRANCH   1   3
HETATM    3  C   UNL     1      39.941   7.658 -14.097  1.00  0.00     0.139 C 
HETATM    4  O   UNL     1      40.947   8.333 -13.933  1.00  0.00    -0.650 OA
BRANCH   3   5
HETATM    5  C   UNL     1      39.067   7.885 -15.300  1.00  0.00     0.110 C 
BRANCH   5   6
HETATM    6  C   UNL     1      39.309   6.843 -16.402  1.00  0.00     0.014 C 
BRANCH   6   7
HETATM    7  C   UNL     1      39.788   7.472 -17.716  1.00  0.00     0.027 C 
BRANCH   7   8
HETATM    8  C   UNL     1      38.598   7.891 -18.543  1.00  0.00    -0.030 C 
HETATM    9  C   UNL     1      38.464   7.691 -19.868  1.00  0.00    -0.027 C 
BRANCH   9  10
HETATM   10  C   UNL     1      39.466   6.995 -20.753  1.00  0.00     0.053 C 
BRANCH  10  11
HETATM   11  C   UNL     1      39.225   7.314 -22.211  1.00  0.00    -0.027 C 
HETATM   12  C   UNL     1      39.827   8.267 -22.953  1.00  0.00    -0.027 C 
BRANCH  12  13
HETATM   13  C   UNL     1      40.900   9.225 -22.502  1.00  0.00     0.053 C 
BRANCH  13  14
HETATM   14  C   UNL     1      40.282  10.370 -21.736  1.00  0.00    -0.027 C 
HETATM   15  C   UNL     1      40.567  10.688 -20.456  1.00  0.00    -0.027 C 
BRANCH  15  16
HETATM   16  C   UNL     1      41.539   9.935 -19.586  1.00  0.00     0.053 C 
BRANCH  16  17
HETATM   17  C   UNL     1      42.377  10.873 -18.754  1.00  0.00    -0.027 C 
HETATM   18  C   UNL     1      42.061  11.251 -17.503  1.00  0.00    -0.030 C 
BRANCH  18  19
HETATM   19  C   UNL     1      40.827  10.810 -16.757  1.00  0.00     0.027 C 
BRANCH  19  20
HETATM   20  C   UNL     1      39.666  11.758 -17.074  1.00  0.00     0.004 C 
BRANCH  20  21
HETATM   21  C   UNL     1      38.315  11.105 -16.763  1.00  0.00    -0.000 C 
BRANCH  21  22
HETATM   22  C   UNL     1      37.183  11.802 -17.527  1.00  0.00    -0.005 C 
HETATM   23  C   UNL     1      36.852  11.060 -18.819  1.00  0.00     0.005 C 
ENDBRANCH  21  22
ENDBRANCH  20  21
ENDBRANCH  19  20
ENDBRANCH  18  19
ENDBRANCH  16  17
ENDBRANCH  15  16
ENDBRANCH  13  14
ENDBRANCH  12  13
ENDBRANCH  10  11
ENDBRANCH   9  10
ENDBRANCH   7   8
ENDBRANCH   6   7
ENDBRANCH   5   6
ENDBRANCH   3   5
ENDBRANCH   1   3
TORSDOF 15
ENDMDL
MODEL 11
REMARK VINA RESULT:      -4.5     25.628     27.693
REMARK  15 active torsions:
REMARK  status: ('A' for Active; 'I' for Inactive)
REMARK    1  A    between atoms: O_1  and  C_22 
REMARK    2  A    between atoms: C_3  and  C_4 
REMARK    3  A    between atoms: C_3  and  C_5 
REMARK    4  A    between atoms: C_4  and  C_6 
REMARK    5  A    between atoms: C_5  and  C_7 
REMARK    6  A    between atoms: C_9  and  C_10 
REMARK    7  A    between atoms: C_9  and  C_13 
REMARK    8  A    between atoms: C_10  and  C_14 
REMARK    9  A    between atoms: C_11  and  C_12 
REMARK   10  A    between atoms: C_12  and  C_16 
REMARK   11  A    between atoms: C_13  and  C_22 
REMARK   12  A    between atoms: C_15  and  C_17 
REMARK   13  A    between atoms: C_15  and  C_20 
REMARK   14  A    between atoms: C_18  and  C_19 
REMARK   15  A    between atoms: C_18  and  C_21 
ROOT
HETATM    1  O   UNL     1      42.871  11.873 -11.587  1.00  0.00    -0.776 OA
HETATM    2  H   UNL     1      43.787  11.564 -11.545  1.00  0.00     0.167 HD
ENDROOT
BRANCH   1   3
HETATM    3  C   UNL     1      41.858  11.143 -11.076  1.00  0.00     0.139 C 
HETATM    4  O   UNL     1      41.508  11.308  -9.916  1.00  0.00    -0.650 OA
BRANCH   3   5
HETATM    5  C   UNL     1      41.168  10.118 -11.933  1.00  0.00     0.110 C 
BRANCH   5   6
HETATM    6  C   UNL     1      41.426  10.340 -13.430  1.00  0.00     0.014 C 
BRANCH   6   7
HETATM    7  C   UNL     1      41.094   9.105 -14.278  1.00  0.00     0.027 C 
BRANCH   7   8
HETATM    8  C   UNL     1      40.432   8.060 -13.415  1.00  0.00    -0.030 C 
HETATM    9  C   UNL     1      39.325   7.368 -13.744  1.00  0.00    -0.027 C 
BRANCH   9  10
HETATM   10  C   UNL     1      38.567   7.497 -15.040  1.00  0.00     0.053 C 
BRANCH  10  11
HETATM   11  C   UNL     1      39.341   6.895 -16.192  1.00  0.00    -0.027 C 
HETATM   12  C   UNL     1      39.451   7.375 -17.447  1.00  0.00    -0.027 C 
BRANCH  12  13
HETATM   13  C   UNL     1      38.841   8.642 -17.991  1.00  0.00     0.053 C 
BRANCH  13  14
HETATM   14  C   UNL     1      39.754   9.814 -17.718  1.00  0.00    -0.027 C 
HETATM   15  C   UNL     1      39.485  10.822 -16.863  1.00  0.00    -0.027 C 
BRANCH  15  16
HETATM   16  C   UNL     1      38.219  10.942 -16.056  1.00  0.00     0.053 C 
BRANCH  16  17
HETATM   17  C   UNL     1      38.371  11.937 -14.933  1.00  0.00    -0.027 C 
HETATM   18  C   UNL     1      37.996  11.699 -13.664  1.00  0.00    -0.030 C 
BRANCH  18  19
HETATM   19  C   UNL     1      37.363  10.418 -13.181  1.00  0.00     0.027 C 
BRANCH  19  20
HETATM   20  C   UNL     1      37.428  10.358 -11.651  1.00  0.00     0.004 C 
BRANCH  20  21
HETATM   21  C   UNL     1      37.561   8.913 -11.158  1.00  0.00    -0.000 C 
BRANCH  21  22
HETATM   22  C   UNL     1      37.732   8.869  -9.635  1.00  0.00    -0.005 C 
HETATM   23  C   UNL     1      38.472  10.104  -9.128  1.00  0.00     0.005 C 
ENDBRANCH  21  22
ENDBRANCH  20  21
ENDBRANCH  19  20
ENDBRANCH  18  19
ENDBRANCH  16  17
ENDBRANCH  15  16
ENDBRANCH  13  14
ENDBRANCH  12  13
ENDBRANCH  10  11
ENDBRANCH   9  10
ENDBRANCH   7   8
ENDBRANCH   6   7
ENDBRANCH   5   6
ENDBRANCH   3   5
ENDBRANCH   1   3
TORSDOF 15
ENDMDL
MODEL 12
REMARK VINA RESULT:      -4.5      3.684      5.913
REMARK  15 active torsions:
REMARK  status: ('A' for Active; 'I' for Inactive)
REMARK    1  A    between atoms: O_1  and  C_22 
REMARK    2  A    between atoms: C_3  and  C_4 
REMARK    3  A    between atoms: C_3  and  C_5 
REMARK    4  A    between atoms: C_4  and  C_6 
REMARK    5  A    between atoms: C_5  and  C_7 
REMARK    6  A    between atoms: C_9  and  C_10 
REMARK    7  A    between atoms: C_9  and  C_13 
REMARK    8  A    between atoms: C_10  and  C_14 
REMARK    9  A    between atoms: C_11  and  C_12 
REMARK   10  A    between atoms: C_12  and  C_16 
REMARK   11  A    between atoms: C_13  and  C_22 
REMARK   12  A    between atoms: C_15  and  C_17 
REMARK   13  A    between atoms: C_15  and  C_20 
REMARK   14  A    between atoms: C_18  and  C_19 
REMARK   15  A    between atoms: C_18  and  C_21 
ROOT
HETATM    1  O   UNL     1      32.546 -20.215 -14.227  1.00  0.00    -0.776 OA
HETATM    2  H   UNL     1      33.324 -20.449 -14.752  1.00  0.00     0.167 HD
ENDROOT
BRANCH   1   3
HETATM    3  C   UNL     1      31.297 -20.372 -14.714  1.00  0.00     0.139 C 
HETATM    4  O   UNL     1      31.125 -20.905 -15.801  1.00  0.00    -0.650 OA
BRANCH   3   5
HETATM    5  C   UNL     1      30.118 -19.878 -13.922  1.00  0.00     0.110 C 
BRANCH   5   6
HETATM    6  C   UNL     1      30.536 -19.236 -12.591  1.00  0.00     0.014 C 
BRANCH   6   7
HETATM    7  C   UNL     1      30.206 -17.740 -12.526  1.00  0.00     0.027 C 
BRANCH   7   8
HETATM    8  C   UNL     1      30.546 -17.203 -11.159  1.00  0.00    -0.030 C 
HETATM    9  C   UNL     1      30.009 -16.102 -10.601  1.00  0.00    -0.027 C 
BRANCH   9  10
HETATM   10  C   UNL     1      28.957 -15.226 -11.233  1.00  0.00     0.053 C 
BRANCH  10  11
HETATM   11  C   UNL     1      28.228 -14.406 -10.191  1.00  0.00    -0.027 C 
HETATM   12  C   UNL     1      28.204 -13.063 -10.073  1.00  0.00    -0.027 C 
BRANCH  12  13
HETATM   13  C   UNL     1      28.886 -12.061 -10.970  1.00  0.00     0.053 C 
BRANCH  13  14
HETATM   14  C   UNL     1      30.165 -11.578 -10.326  1.00  0.00    -0.027 C 
HETATM   15  C   UNL     1      31.406 -11.961 -10.690  1.00  0.00    -0.027 C 
BRANCH  15  16
HETATM   16  C   UNL     1      31.709 -12.946 -11.788  1.00  0.00     0.053 C 
BRANCH  16  17
HETATM   17  C   UNL     1      31.821 -12.263 -13.128  1.00  0.00    -0.027 C 
HETATM   18  C   UNL     1      31.093 -12.602 -14.206  1.00  0.00    -0.030 C 
BRANCH  18  19
HETATM   19  C   UNL     1      30.073 -13.712 -14.241  1.00  0.00     0.027 C 
BRANCH  19  20
HETATM   20  C   UNL     1      30.037 -14.334 -15.640  1.00  0.00     0.004 C 
BRANCH  20  21
HETATM   21  C   UNL     1      29.526 -15.778 -15.593  1.00  0.00    -0.000 C 
BRANCH  21  22
HETATM   22  C   UNL     1      30.648 -16.766 -15.936  1.00  0.00    -0.005 C 
HETATM   23  C   UNL     1      30.303 -17.579 -17.180  1.00  0.00     0.005 C 
ENDBRANCH  21  22
ENDBRANCH  20  21
ENDBRANCH  19  20
ENDBRANCH  18  19
ENDBRANCH  16  17
ENDBRANCH  15  16
ENDBRANCH  13  14
ENDBRANCH  12  13
ENDBRANCH  10  11
ENDBRANCH   9  10
ENDBRANCH   7   8
ENDBRANCH   6   7
ENDBRANCH   5   6
ENDBRANCH   3   5
ENDBRANCH   1   3
TORSDOF 15
ENDMDL
MODEL 13
REMARK VINA RESULT:      -4.5     24.717     27.062
REMARK  15 active torsions:
REMARK  status: ('A' for Active; 'I' for Inactive)
REMARK    1  A    between atoms: O_1  and  C_22 
REMARK    2  A    between atoms: C_3  and  C_4 
REMARK    3  A    between atoms: C_3  and  C_5 
REMARK    4  A    between atoms: C_4  and  C_6 
REMARK    5  A    between atoms: C_5  and  C_7 
REMARK    6  A    between atoms: C_9  and  C_10 
REMARK    7  A    between atoms: C_9  and  C_13 
REMARK    8  A    between atoms: C_10  and  C_14 
REMARK    9  A    between atoms: C_11  and  C_12 
REMARK   10  A    between atoms: C_12  and  C_16 
REMARK   11  A    between atoms: C_13  and  C_22 
REMARK   12  A    between atoms: C_15  and  C_17 
REMARK   13  A    between atoms: C_15  and  C_20 
REMARK   14  A    between atoms: C_18  and  C_19 
REMARK   15  A    between atoms: C_18  and  C_21 
ROOT
HETATM    1  O   UNL     1      42.933  11.985 -10.096  1.00  0.00    -0.776 OA
HETATM    2  H   UNL     1      43.876  11.829  -9.943  1.00  0.00     0.167 HD
ENDROOT
BRANCH   1   3
HETATM    3  C   UNL     1      42.049  10.965 -10.140  1.00  0.00     0.139 C 
HETATM    4  O   UNL     1      41.874  10.265  -9.154  1.00  0.00    -0.650 OA
BRANCH   3   5
HETATM    5  C   UNL     1      41.291  10.687 -11.408  1.00  0.00     0.110 C 
BRANCH   5   6
HETATM    6  C   UNL     1      42.087  11.076 -12.662  1.00  0.00     0.014 C 
BRANCH   6   7
HETATM    7  C   UNL     1      41.977  10.031 -13.780  1.00  0.00     0.027 C 
BRANCH   7   8
HETATM    8  C   UNL     1      41.216  10.611 -14.945  1.00  0.00    -0.030 C 
HETATM    9  C   UNL     1      40.494   9.901 -15.832  1.00  0.00    -0.027 C 
BRANCH   9  10
HETATM   10  C   UNL     1      40.299   8.406 -15.803  1.00  0.00     0.053 C 
BRANCH  10  11
HETATM   11  C   UNL     1      38.843   8.046 -15.605  1.00  0.00    -0.027 C 
HETATM   12  C   UNL     1      38.129   8.114 -14.463  1.00  0.00    -0.027 C 
BRANCH  12  13
HETATM   13  C   UNL     1      38.615   8.587 -13.116  1.00  0.00     0.053 C 
BRANCH  13  14
HETATM   14  C   UNL     1      39.501   7.536 -12.489  1.00  0.00    -0.027 C 
HETATM   15  C   UNL     1      39.317   6.999 -11.265  1.00  0.00    -0.027 C 
BRANCH  15  16
HETATM   16  C   UNL     1      38.203   7.379 -10.325  1.00  0.00     0.053 C 
BRANCH  16  17
HETATM   17  C   UNL     1      38.559   8.596  -9.509  1.00  0.00    -0.027 C 
HETATM   18  C   UNL     1      39.100   8.542  -8.279  1.00  0.00    -0.030 C 
BRANCH  18  19
HETATM   19  C   UNL     1      39.416   7.271  -7.533  1.00  0.00     0.027 C 
BRANCH  19  20
HETATM   20  C   UNL     1      38.900   7.376  -6.094  1.00  0.00     0.004 C 
BRANCH  20  21
HETATM   21  C   UNL     1      40.059   7.458  -5.095  1.00  0.00    -0.000 C 
BRANCH  21  22
HETATM   22  C   UNL     1      40.119   8.844  -4.441  1.00  0.00    -0.005 C 
HETATM   23  C   UNL     1      40.963   9.808  -5.269  1.00  0.00     0.005 C 
ENDBRANCH  21  22
ENDBRANCH  20  21
ENDBRANCH  19  20
ENDBRANCH  18  19
ENDBRANCH  16  17
ENDBRANCH  15  16
ENDBRANCH  13  14
ENDBRANCH  12  13
ENDBRANCH  10  11
ENDBRANCH   9  10
ENDBRANCH   7   8
ENDBRANCH   6   7
ENDBRANCH   5   6
ENDBRANCH   3   5
ENDBRANCH   1   3
TORSDOF 15
ENDMDL
MODEL 14
REMARK VINA RESULT:      -4.5      5.469      7.441
REMARK  15 active torsions:
REMARK  status: ('A' for Active; 'I' for Inactive)
REMARK    1  A    between atoms: O_1  and  C_22 
REMARK    2  A    between atoms: C_3  and  C_4 
REMARK    3  A    between atoms: C_3  and  C_5 
REMARK    4  A    between atoms: C_4  and  C_6 
REMARK    5  A    between atoms: C_5  and  C_7 
REMARK    6  A    between atoms: C_9  and  C_10 
REMARK    7  A    between atoms: C_9  and  C_13 
REMARK    8  A    between atoms: C_10  and  C_14 
REMARK    9  A    between atoms: C_11  and  C_12 
REMARK   10  A    between atoms: C_12  and  C_16 
REMARK   11  A    between atoms: C_13  and  C_22 
REMARK   12  A    between atoms: C_15  and  C_17 
REMARK   13  A    between atoms: C_15  and  C_20 
REMARK   14  A    between atoms: C_18  and  C_19 
REMARK   15  A    between atoms: C_18  and  C_21 
ROOT
HETATM    1  O   UNL     1      29.945 -21.116 -13.879  1.00  0.00    -0.776 OA
HETATM    2  H   UNL     1      29.489 -21.932 -14.127  1.00  0.00     0.167 HD
ENDROOT
BRANCH   1   3
HETATM    3  C   UNL     1      30.501 -20.311 -14.810  1.00  0.00     0.139 C 
HETATM    4  O   UNL     1      31.185 -20.788 -15.703  1.00  0.00    -0.650 OA
BRANCH   3   5
HETATM    5  C   UNL     1      30.286 -18.824 -14.736  1.00  0.00     0.110 C 
BRANCH   5   6
HETATM    6  C   UNL     1      30.344 -18.157 -16.118  1.00  0.00     0.014 C 
BRANCH   6   7
HETATM    7  C   UNL     1      30.281 -16.626 -16.038  1.00  0.00     0.027 C 
BRANCH   7   8
HETATM    8  C   UNL     1      31.676 -16.066 -15.907  1.00  0.00    -0.030 C 
HETATM    9  C   UNL     1      32.217 -15.591 -14.770  1.00  0.00    -0.027 C 
BRANCH   9  10
HETATM   10  C   UNL     1      31.537 -15.556 -13.425  1.00  0.00     0.053 C 
BRANCH  10  11
HETATM   11  C   UNL     1      32.443 -14.968 -12.367  1.00  0.00    -0.027 C 
HETATM   12  C   UNL     1      32.637 -13.663 -12.086  1.00  0.00    -0.027 C 
BRANCH  12  13
HETATM   13  C   UNL     1      31.976 -12.483 -12.752  1.00  0.00     0.053 C 
BRANCH  13  14
HETATM   14  C   UNL     1      33.025 -11.527 -13.270  1.00  0.00    -0.027 C 
HETATM   15  C   UNL     1      33.003 -10.938 -14.483  1.00  0.00    -0.027 C 
BRANCH  15  16
HETATM   16  C   UNL     1      31.932 -11.157 -15.519  1.00  0.00     0.053 C 
BRANCH  16  17
HETATM   17  C   UNL     1      32.271 -12.311 -16.429  1.00  0.00    -0.027 C 
HETATM   18  C   UNL     1      31.424 -12.822 -17.340  1.00  0.00    -0.030 C 
BRANCH  18  19
HETATM   19  C   UNL     1      30.019 -12.330 -17.578  1.00  0.00     0.027 C 
BRANCH  19  20
HETATM   20  C   UNL     1      29.029 -13.206 -16.803  1.00  0.00     0.004 C 
BRANCH  20  21
HETATM   21  C   UNL     1      28.414 -12.441 -15.626  1.00  0.00    -0.000 C 
BRANCH  21  22
HETATM   22  C   UNL     1      28.907 -13.006 -14.289  1.00  0.00    -0.005 C 
HETATM   23  C   UNL     1      28.182 -14.301 -13.938  1.00  0.00     0.005 C 
ENDBRANCH  21  22
ENDBRANCH  20  21
ENDBRANCH  19  20
ENDBRANCH  18  19
ENDBRANCH  16  17
ENDBRANCH  15  16
ENDBRANCH  13  14
ENDBRANCH  12  13
ENDBRANCH  10  11
ENDBRANCH   9  10
ENDBRANCH   7   8
ENDBRANCH   6   7
ENDBRANCH   5   6
ENDBRANCH   3   5
ENDBRANCH   1   3
TORSDOF 15
ENDMDL
MODEL 15
REMARK VINA RESULT:      -4.5      7.430     10.350
REMARK  15 active torsions:
REMARK  status: ('A' for Active; 'I' for Inactive)
REMARK    1  A    between atoms: O_1  and  C_22 
REMARK    2  A    between atoms: C_3  and  C_4 
REMARK    3  A    between atoms: C_3  and  C_5 
REMARK    4  A    between atoms: C_4  and  C_6 
REMARK    5  A    between atoms: C_5  and  C_7 
REMARK    6  A    between atoms: C_9  and  C_10 
REMARK    7  A    between atoms: C_9  and  C_13 
REMARK    8  A    between atoms: C_10  and  C_14 
REMARK    9  A    between atoms: C_11  and  C_12 
REMARK   10  A    between atoms: C_12  and  C_16 
REMARK   11  A    between atoms: C_13  and  C_22 
REMARK   12  A    between atoms: C_15  and  C_17 
REMARK   13  A    between atoms: C_15  and  C_20 
REMARK   14  A    between atoms: C_18  and  C_19 
REMARK   15  A    between atoms: C_18  and  C_21 
ROOT
HETATM    1  O   UNL     1      31.303 -21.242 -15.320  1.00  0.00    -0.776 OA
HETATM    2  H   UNL     1      31.193 -22.199 -15.236  1.00  0.00     0.167 HD
ENDROOT
BRANCH   1   3
HETATM    3  C   UNL     1      30.543 -20.382 -14.609  1.00  0.00     0.139 C 
HETATM    4  O   UNL     1      29.948 -20.769 -13.614  1.00  0.00    -0.650 OA
BRANCH   3   5
HETATM    5  C   UNL     1      30.419 -18.951 -15.053  1.00  0.00     0.110 C 
BRANCH   5   6
HETATM    6  C   UNL     1      30.494 -18.804 -16.580  1.00  0.00     0.014 C 
BRANCH   6   7
HETATM    7  C   UNL     1      30.203 -17.374 -17.052  1.00  0.00     0.027 C 
BRANCH   7   8
HETATM    8  C   UNL     1      31.258 -16.438 -16.518  1.00  0.00    -0.030 C 
HETATM    9  C   UNL     1      31.015 -15.278 -15.878  1.00  0.00    -0.027 C 
BRANCH   9  10
HETATM   10  C   UNL     1      29.649 -14.723 -15.562  1.00  0.00     0.053 C 
BRANCH  10  11
HETATM   11  C   UNL     1      29.439 -13.377 -16.218  1.00  0.00    -0.027 C 
HETATM   12  C   UNL     1      28.966 -13.132 -17.458  1.00  0.00    -0.027 C 
BRANCH  12  13
HETATM   13  C   UNL     1      28.516 -14.151 -18.474  1.00  0.00     0.053 C 
BRANCH  13  14
HETATM   14  C   UNL     1      27.698 -13.479 -19.551  1.00  0.00    -0.027 C 
HETATM   15  C   UNL     1      28.177 -13.068 -20.744  1.00  0.00    -0.027 C 
BRANCH  15  16
HETATM   16  C   UNL     1      29.613 -13.203 -21.179  1.00  0.00     0.053 C 
BRANCH  16  17
HETATM   17  C   UNL     1      30.432 -12.008 -20.760  1.00  0.00    -0.027 C 
HETATM   18  C   UNL     1      31.524 -12.083 -19.980  1.00  0.00    -0.030 C 
BRANCH  18  19
HETATM   19  C   UNL     1      32.082 -13.360 -19.403  1.00  0.00     0.027 C 
BRANCH  19  20
HETATM   20  C   UNL     1      32.862 -13.048 -18.121  1.00  0.00     0.004 C 
BRANCH  20  21
HETATM   21  C   UNL     1      32.445 -11.696 -17.534  1.00  0.00    -0.000 C 
BRANCH  21  22
HETATM   22  C   UNL     1      33.078 -11.481 -16.154  1.00  0.00    -0.005 C 
HETATM   23  C   UNL     1      32.040 -11.016 -15.137  1.00  0.00     0.005 C 
ENDBRANCH  21  22
ENDBRANCH  20  21
ENDBRANCH  19  20
ENDBRANCH  18  19
ENDBRANCH  16  17
ENDBRANCH  15  16
ENDBRANCH  13  14
ENDBRANCH  12  13
ENDBRANCH  10  11
ENDBRANCH   9  10
ENDBRANCH   7   8
ENDBRANCH   6   7
ENDBRANCH   5   6
ENDBRANCH   3   5
ENDBRANCH   1   3
TORSDOF 15
ENDMDL
MODEL 16
REMARK VINA RESULT:      -4.4      3.082      4.594
REMARK  15 active torsions:
REMARK  status: ('A' for Active; 'I' for Inactive)
REMARK    1  A    between atoms: O_1  and  C_22 
REMARK    2  A    between atoms: C_3  and  C_4 
REMARK    3  A    between atoms: C_3  and  C_5 
REMARK    4  A    between atoms: C_4  and  C_6 
REMARK    5  A    between atoms: C_5  and  C_7 
REMARK    6  A    between atoms: C_9  and  C_10 
REMARK    7  A    between atoms: C_9  and  C_13 
REMARK    8  A    between atoms: C_10  and  C_14 
REMARK    9  A    between atoms: C_11  and  C_12 
REMARK   10  A    between atoms: C_12  and  C_16 
REMARK   11  A    between atoms: C_13  and  C_22 
REMARK   12  A    between atoms: C_15  and  C_17 
REMARK   13  A    between atoms: C_15  and  C_20 
REMARK   14  A    between atoms: C_18  and  C_19 
REMARK   15  A    between atoms: C_18  and  C_21 
ROOT
HETATM    1  O   UNL     1      31.927 -21.044 -14.774  1.00  0.00    -0.776 OA
HETATM    2  H   UNL     1      32.603 -21.533 -14.283  1.00  0.00     0.167 HD
ENDROOT
BRANCH   1   3
HETATM    3  C   UNL     1      30.983 -20.319 -14.137  1.00  0.00     0.139 C 
HETATM    4  O   UNL     1      29.954 -20.856 -13.752  1.00  0.00    -0.650 OA
BRANCH   3   5
HETATM    5  C   UNL     1      31.195 -18.848 -13.912  1.00  0.00     0.110 C 
BRANCH   5   6
HETATM    6  C   UNL     1      30.014 -18.191 -13.184  1.00  0.00     0.014 C 
BRANCH   6   7
HETATM    7  C   UNL     1      30.390 -17.676 -11.789  1.00  0.00     0.027 C 
BRANCH   7   8
HETATM    8  C   UNL     1      30.311 -18.805 -10.792  1.00  0.00    -0.030 C 
HETATM    9  C   UNL     1      30.222 -18.656  -9.457  1.00  0.00    -0.027 C 
BRANCH   9  10
HETATM   10  C   UNL     1      30.162 -17.339  -8.726  1.00  0.00     0.053 C 
BRANCH  10  11
HETATM   11  C   UNL     1      31.548 -16.786  -8.478  1.00  0.00    -0.027 C 
HETATM   12  C   UNL     1      32.060 -15.622  -8.929  1.00  0.00    -0.027 C 
BRANCH  12  13
HETATM   13  C   UNL     1      31.358 -14.589  -9.772  1.00  0.00     0.053 C 
BRANCH  13  14
HETATM   14  C   UNL     1      30.819 -13.484  -8.894  1.00  0.00    -0.027 C 
HETATM   15  C   UNL     1      29.512 -13.253  -8.655  1.00  0.00    -0.027 C 
BRANCH  15  16
HETATM   16  C   UNL     1      28.382 -14.056  -9.245  1.00  0.00     0.053 C 
BRANCH  16  17
HETATM   17  C   UNL     1      27.659 -13.286 -10.321  1.00  0.00    -0.027 C 
HETATM   18  C   UNL     1      27.719 -13.590 -11.629  1.00  0.00    -0.030 C 
BRANCH  18  19
HETATM   19  C   UNL     1      28.519 -14.727 -12.212  1.00  0.00     0.027 C 
BRANCH  19  20
HETATM   20  C   UNL     1      29.319 -14.228 -13.420  1.00  0.00     0.004 C 
BRANCH  20  21
HETATM   21  C   UNL     1      28.788 -14.831 -14.725  1.00  0.00    -0.000 C 
BRANCH  21  22
HETATM   22  C   UNL     1      29.917 -15.002 -15.747  1.00  0.00    -0.005 C 
HETATM   23  C   UNL     1      29.860 -16.377 -16.407  1.00  0.00     0.005 C 
ENDBRANCH  21  22
ENDBRANCH  20  21
ENDBRANCH  19  20
ENDBRANCH  18  19
ENDBRANCH  16  17
ENDBRANCH  15  16
ENDBRANCH  13  14
ENDBRANCH  12  13
ENDBRANCH  10  11
ENDBRANCH   9  10
ENDBRANCH   7   8
ENDBRANCH   6   7
ENDBRANCH   5   6
ENDBRANCH   3   5
ENDBRANCH   1   3
TORSDOF 15
ENDMDL
MODEL 17
REMARK VINA RESULT:      -4.4      4.540      7.418
REMARK  15 active torsions:
REMARK  status: ('A' for Active; 'I' for Inactive)
REMARK    1  A    between atoms: O_1  and  C_22 
REMARK    2  A    between atoms: C_3  and  C_4 
REMARK    3  A    between atoms: C_3  and  C_5 
REMARK    4  A    between atoms: C_4  and  C_6 
REMARK    5  A    between atoms: C_5  and  C_7 
REMARK    6  A    between atoms: C_9  and  C_10 
REMARK    7  A    between atoms: C_9  and  C_13 
REMARK    8  A    between atoms: C_10  and  C_14 
REMARK    9  A    between atoms: C_11  and  C_12 
REMARK   10  A    between atoms: C_12  and  C_16 
REMARK   11  A    between atoms: C_13  and  C_22 
REMARK   12  A    between atoms: C_15  and  C_17 
REMARK   13  A    between atoms: C_15  and  C_20 
REMARK   14  A    between atoms: C_18  and  C_19 
REMARK   15  A    between atoms: C_18  and  C_21 
ROOT
HETATM    1  O   UNL     1      29.833 -21.322 -14.066  1.00  0.00    -0.776 OA
HETATM    2  H   UNL     1      29.670 -22.246 -14.301  1.00  0.00     0.167 HD
ENDROOT
BRANCH   1   3
HETATM    3  C   UNL     1      30.818 -20.610 -14.655  1.00  0.00     0.139 C 
HETATM    4  O   UNL     1      31.102 -20.812 -15.827  1.00  0.00    -0.650 OA
BRANCH   3   5
HETATM    5  C   UNL     1      31.571 -19.578 -13.862  1.00  0.00     0.110 C 
BRANCH   5   6
HETATM    6  C   UNL     1      31.020 -19.419 -12.438  1.00  0.00     0.014 C 
BRANCH   6   7
HETATM    7  C   UNL     1      30.198 -18.136 -12.262  1.00  0.00     0.027 C 
BRANCH   7   8
HETATM    8  C   UNL     1      31.061 -16.935 -12.557  1.00  0.00    -0.030 C 
HETATM    9  C   UNL     1      30.834 -16.037 -13.534  1.00  0.00    -0.027 C 
BRANCH   9  10
HETATM   10  C   UNL     1      29.667 -16.059 -14.488  1.00  0.00     0.053 C 
BRANCH  10  11
HETATM   11  C   UNL     1      30.025 -16.769 -15.775  1.00  0.00    -0.027 C 
HETATM   12  C   UNL     1      30.283 -16.211 -16.976  1.00  0.00    -0.027 C 
BRANCH  12  13
HETATM   13  C   UNL     1      30.294 -14.741 -17.309  1.00  0.00     0.053 C 
BRANCH  13  14
HETATM   14  C   UNL     1      29.017 -14.363 -18.023  1.00  0.00    -0.027 C 
HETATM   15  C   UNL     1      27.984 -13.701 -17.463  1.00  0.00    -0.027 C 
BRANCH  15  16
HETATM   16  C   UNL     1      27.939 -13.248 -16.027  1.00  0.00     0.053 C 
BRANCH  16  17
HETATM   17  C   UNL     1      28.568 -11.887 -15.857  1.00  0.00    -0.027 C 
HETATM   18  C   UNL     1      29.512 -11.607 -14.942  1.00  0.00    -0.030 C 
BRANCH  18  19
HETATM   19  C   UNL     1      30.071 -12.597 -13.952  1.00  0.00     0.027 C 
BRANCH  19  20
HETATM   20  C   UNL     1      29.230 -12.574 -12.671  1.00  0.00     0.004 C 
BRANCH  20  21
HETATM   21  C   UNL     1      30.114 -12.686 -11.425  1.00  0.00    -0.000 C 
BRANCH  21  22
HETATM   22  C   UNL     1      29.465 -13.595 -10.374  1.00  0.00    -0.005 C 
HETATM   23  C   UNL     1      28.501 -14.584 -11.022  1.00  0.00     0.005 C 
ENDBRANCH  21  22
ENDBRANCH  20  21
ENDBRANCH  19  20
ENDBRANCH  18  19
ENDBRANCH  16  17
ENDBRANCH  15  16
ENDBRANCH  13  14
ENDBRANCH  12  13
ENDBRANCH  10  11
ENDBRANCH   9  10
ENDBRANCH   7   8
ENDBRANCH   6   7
ENDBRANCH   5   6
ENDBRANCH   3   5
ENDBRANCH   1   3
TORSDOF 15
ENDMDL
MODEL 18
REMARK VINA RESULT:      -4.4      2.491      4.545
REMARK  15 active torsions:
REMARK  status: ('A' for Active; 'I' for Inactive)
REMARK    1  A    between atoms: O_1  and  C_22 
REMARK    2  A    between atoms: C_3  and  C_4 
REMARK    3  A    between atoms: C_3  and  C_5 
REMARK    4  A    between atoms: C_4  and  C_6 
REMARK    5  A    between atoms: C_5  and  C_7 
REMARK    6  A    between atoms: C_9  and  C_10 
REMARK    7  A    between atoms: C_9  and  C_13 
REMARK    8  A    between atoms: C_10  and  C_14 
REMARK    9  A    between atoms: C_11  and  C_12 
REMARK   10  A    between atoms: C_12  and  C_16 
REMARK   11  A    between atoms: C_13  and  C_22 
REMARK   12  A    between atoms: C_15  and  C_17 
REMARK   13  A    between atoms: C_15  and  C_20 
REMARK   14  A    between atoms: C_18  and  C_19 
REMARK   15  A    between atoms: C_18  and  C_21 
ROOT
HETATM    1  O   UNL     1      31.749 -21.045  -5.134  1.00  0.00    -0.776 OA
HETATM    2  H   UNL     1      32.504 -21.585  -5.410  1.00  0.00     0.167 HD
ENDROOT
BRANCH   1   3
HETATM    3  C   UNL     1      31.036 -20.326  -6.027  1.00  0.00     0.139 C 
HETATM    4  O   UNL     1      30.771 -20.798  -7.123  1.00  0.00    -0.650 OA
BRANCH   3   5
HETATM    5  C   UNL     1      30.580 -18.937  -5.674  1.00  0.00     0.110 C 
BRANCH   5   6
HETATM    6  C   UNL     1      29.828 -18.892  -4.336  1.00  0.00     0.014 C 
BRANCH   6   7
HETATM    7  C   UNL     1      30.445 -17.897  -3.344  1.00  0.00     0.027 C 
BRANCH   7   8
HETATM    8  C   UNL     1      31.183 -16.820  -4.098  1.00  0.00    -0.030 C 
HETATM    9  C   UNL     1      30.719 -15.577  -4.331  1.00  0.00    -0.027 C 
BRANCH   9  10
HETATM   10  C   UNL     1      29.393 -15.037  -3.860  1.00  0.00     0.053 C 
BRANCH  10  11
HETATM   11  C   UNL     1      29.575 -13.792  -3.019  1.00  0.00    -0.027 C 
HETATM   12  C   UNL     1      29.523 -12.509  -3.432  1.00  0.00    -0.027 C 
BRANCH  12  13
HETATM   13  C   UNL     1      29.250 -12.016  -4.830  1.00  0.00     0.053 C 
BRANCH  13  14
HETATM   14  C   UNL     1      30.503 -12.114  -5.667  1.00  0.00    -0.027 C 
HETATM   15  C   UNL     1      30.544 -12.518  -6.954  1.00  0.00    -0.027 C 
BRANCH  15  16
HETATM   16  C   UNL     1      29.342 -12.952  -7.751  1.00  0.00     0.053 C 
BRANCH  16  17
HETATM   17  C   UNL     1      28.928 -14.360  -7.404  1.00  0.00    -0.027 C 
HETATM   18  C   UNL     1      29.599 -15.457  -7.797  1.00  0.00    -0.030 C 
BRANCH  18  19
HETATM   19  C   UNL     1      30.846 -15.445  -8.645  1.00  0.00     0.027 C 
BRANCH  19  20
HETATM   20  C   UNL     1      31.980 -16.161  -7.903  1.00  0.00     0.004 C 
BRANCH  20  21
HETATM   21  C   UNL     1      33.349 -15.621  -8.329  1.00  0.00    -0.000 C 
BRANCH  21  22
HETATM   22  C   UNL     1      33.656 -14.293  -7.627  1.00  0.00    -0.005 C 
HETATM   23  C   UNL     1      33.706 -14.469  -6.112  1.00  0.00     0.005 C 
ENDBRANCH  21  22
ENDBRANCH  20  21
ENDBRANCH  19  20
ENDBRANCH  18  19
ENDBRANCH  16  17
ENDBRANCH  15  16
ENDBRANCH  13  14
ENDBRANCH  12  13
ENDBRANCH  10  11
ENDBRANCH   9  10
ENDBRANCH   7   8
ENDBRANCH   6   7
ENDBRANCH   5   6
ENDBRANCH   3   5
ENDBRANCH   1   3
TORSDOF 15
ENDMDL
MODEL 19
REMARK VINA RESULT:      -4.4     26.540     28.670
REMARK  15 active torsions:
REMARK  status: ('A' for Active; 'I' for Inactive)
REMARK    1  A    between atoms: O_1  and  C_22 
REMARK    2  A    between atoms: C_3  and  C_4 
REMARK    3  A    between atoms: C_3  and  C_5 
REMARK    4  A    between atoms: C_4  and  C_6 
REMARK    5  A    between atoms: C_5  and  C_7 
REMARK    6  A    between atoms: C_9  and  C_10 
REMARK    7  A    between atoms: C_9  and  C_13 
REMARK    8  A    between atoms: C_10  and  C_14 
REMARK    9  A    between atoms: C_11  and  C_12 
REMARK   10  A    between atoms: C_12  and  C_16 
REMARK   11  A    between atoms: C_13  and  C_22 
REMARK   12  A    between atoms: C_15  and  C_17 
REMARK   13  A    between atoms: C_15  and  C_20 
REMARK   14  A    between atoms: C_18  and  C_19 
REMARK   15  A    between atoms: C_18  and  C_21 
ROOT
HETATM    1  O   UNL     1      36.745  13.218 -16.359  1.00  0.00    -0.776 OA
HETATM    2  H   UNL     1      36.136  12.954 -15.656  1.00  0.00     0.167 HD
ENDROOT
BRANCH   1   3
HETATM    3  C   UNL     1      37.093  12.364 -17.346  1.00  0.00     0.139 C 
HETATM    4  O   UNL     1      37.741  12.764 -18.302  1.00  0.00    -0.650 OA
BRANCH   3   5
HETATM    5  C   UNL     1      36.669  10.923 -17.271  1.00  0.00     0.110 C 
BRANCH   5   6
HETATM    6  C   UNL     1      36.817  10.344 -15.857  1.00  0.00     0.014 C 
BRANCH   6   7
HETATM    7  C   UNL     1      37.418   8.932 -15.856  1.00  0.00     0.027 C 
BRANCH   7   8
HETATM    8  C   UNL     1      37.893   8.583 -14.468  1.00  0.00    -0.030 C 
HETATM    9  C   UNL     1      39.156   8.250 -14.141  1.00  0.00    -0.027 C 
BRANCH   9  10
HETATM   10  C   UNL     1      40.320   8.191 -15.097  1.00  0.00     0.053 C 
BRANCH  10  11
HETATM   11  C   UNL     1      41.037   9.521 -15.170  1.00  0.00    -0.027 C 
HETATM   12  C   UNL     1      41.064  10.382 -16.208  1.00  0.00    -0.027 C 
BRANCH  12  13
HETATM   13  C   UNL     1      40.365  10.226 -17.535  1.00  0.00     0.053 C 
BRANCH  13  14
HETATM   14  C   UNL     1      41.195   9.366 -18.458  1.00  0.00    -0.027 C 
HETATM   15  C   UNL     1      40.818   8.165 -18.943  1.00  0.00    -0.027 C 
BRANCH  15  16
HETATM   16  C   UNL     1      39.512   7.487 -18.622  1.00  0.00     0.053 C 
BRANCH  16  17
HETATM   17  C   UNL     1      38.842   6.961 -19.868  1.00  0.00    -0.027 C 
HETATM   18  C   UNL     1      37.888   7.625 -20.544  1.00  0.00    -0.030 C 
BRANCH  18  19
HETATM   19  C   UNL     1      37.342   8.976 -20.156  1.00  0.00     0.027 C 
BRANCH  19  20
HETATM   20  C   UNL     1      37.557   9.967 -21.304  1.00  0.00     0.004 C 
BRANCH  20  21
HETATM   21  C   UNL     1      38.976  10.546 -21.279  1.00  0.00    -0.000 C 
BRANCH  21  22
HETATM   22  C   UNL     1      39.714  10.243 -22.588  1.00  0.00    -0.005 C 
HETATM   23  C   UNL     1      41.082   9.625 -22.319  1.00  0.00     0.005 C 
ENDBRANCH  21  22
ENDBRANCH  20  21
ENDBRANCH  19  20
ENDBRANCH  18  19
ENDBRANCH  16  17
ENDBRANCH  15  16
ENDBRANCH  13  14
ENDBRANCH  12  13
ENDBRANCH  10  11
ENDBRANCH   9  10
ENDBRANCH   7   8
ENDBRANCH   6   7
ENDBRANCH   5   6
ENDBRANCH   3   5
ENDBRANCH   1   3
TORSDOF 15
ENDMDL
MODEL 20
REMARK VINA RESULT:      -4.3     11.866     14.454
REMARK  15 active torsions:
REMARK  status: ('A' for Active; 'I' for Inactive)
REMARK    1  A    between atoms: O_1  and  C_22 
REMARK    2  A    between atoms: C_3  and  C_4 
REMARK    3  A    between atoms: C_3  and  C_5 
REMARK    4  A    between atoms: C_4  and  C_6 
REMARK    5  A    between atoms: C_5  and  C_7 
REMARK    6  A    between atoms: C_9  and  C_10 
REMARK    7  A    between atoms: C_9  and  C_13 
REMARK    8  A    between atoms: C_10  and  C_14 
REMARK    9  A    between atoms: C_11  and  C_12 
REMARK   10  A    between atoms: C_12  and  C_16 
REMARK   11  A    between atoms: C_13  and  C_22 
REMARK   12  A    between atoms: C_15  and  C_17 
REMARK   13  A    between atoms: C_15  and  C_20 
REMARK   14  A    between atoms: C_18  and  C_19 
REMARK   15  A    between atoms: C_18  and  C_21 
ROOT
HETATM    1  O   UNL     1      41.479 -18.107  -4.162  1.00  0.00    -0.776 OA
HETATM    2  H   UNL     1      41.607 -18.798  -4.826  1.00  0.00     0.167 HD
ENDROOT
BRANCH   1   3
HETATM    3  C   UNL     1      41.809 -16.822  -4.413  1.00  0.00     0.139 C 
HETATM    4  O   UNL     1      40.946 -15.956  -4.407  1.00  0.00    -0.650 OA
BRANCH   3   5
HETATM    5  C   UNL     1      43.238 -16.461  -4.711  1.00  0.00     0.110 C 
BRANCH   5   6
HETATM    6  C   UNL     1      43.885 -17.422  -5.719  1.00  0.00     0.014 C 
BRANCH   6   7
HETATM    7  C   UNL     1      44.201 -16.747  -7.060  1.00  0.00     0.027 C 
BRANCH   7   8
HETATM    8  C   UNL     1      43.245 -15.604  -7.292  1.00  0.00    -0.030 C 
HETATM    9  C   UNL     1      42.310 -15.558  -8.260  1.00  0.00    -0.027 C 
BRANCH   9  10
HETATM   10  C   UNL     1      42.038 -16.649  -9.265  1.00  0.00     0.053 C 
BRANCH  10  11
HETATM   11  C   UNL     1      42.825 -16.430 -10.538  1.00  0.00    -0.027 C 
HETATM   12  C   UNL     1      43.845 -17.176 -11.010  1.00  0.00    -0.027 C 
BRANCH  12  13
HETATM   13  C   UNL     1      44.426 -18.419 -10.385  1.00  0.00     0.053 C 
BRANCH  13  14
HETATM   14  C   UNL     1      44.903 -19.364 -11.461  1.00  0.00    -0.027 C 
HETATM   15  C   UNL     1      44.130 -20.272 -12.092  1.00  0.00    -0.027 C 
BRANCH  15  16
HETATM   16  C   UNL     1      42.668 -20.494 -11.805  1.00  0.00     0.053 C 
BRANCH  16  17
HETATM   17  C   UNL     1      42.456 -21.685 -10.904  1.00  0.00    -0.027 C 
HETATM   18  C   UNL     1      41.890 -21.613  -9.687  1.00  0.00    -0.030 C 
BRANCH  18  19
HETATM   19  C   UNL     1      41.398 -20.342  -9.041  1.00  0.00     0.027 C 
BRANCH  19  20
HETATM   20  C   UNL     1      42.171 -20.093  -7.742  1.00  0.00     0.004 C 
BRANCH  20  21
HETATM   21  C   UNL     1      43.211 -21.190  -7.496  1.00  0.00    -0.000 C 
BRANCH  21  22
HETATM   22  C   UNL     1      44.625 -20.600  -7.439  1.00  0.00    -0.005 C 
HETATM   23  C   UNL     1      45.589 -21.393  -8.316  1.00  0.00     0.005 C 
ENDBRANCH  21  22
ENDBRANCH  20  21
ENDBRANCH  19  20
ENDBRANCH  18  19
ENDBRANCH  16  17
ENDBRANCH  15  16
ENDBRANCH  13  14
ENDBRANCH  12  13
ENDBRANCH  10  11
ENDBRANCH   9  10
ENDBRANCH   7   8
ENDBRANCH   6   7
ENDBRANCH   5   6
ENDBRANCH   3   5
ENDBRANCH   1   3
TORSDOF 15
ENDMDL
