MODEL 1
REMARK VINA RESULT:      -5.1      0.000      0.000
REMARK  15 active torsions:
REMARK  status: ('A' for Active; 'I' for Inactive)
REMARK    1  A    between atoms: O_1  and  C_22 
REMARK    2  A    between atoms: C_3  and  C_4 
REMARK    3  A    between atoms: C_3  and  C_5 
REMARK    4  A    between atoms: C_4  and  C_6 
REMARK    5  A    between atoms: C_5  and  C_7 
REMARK    6  A    between atoms: C_9  and  C_10 
REMARK    7  A    between atoms: C_9  and  C_13 
REMARK    8  A    between atoms: C_10  and  C_14 
REMARK    9  A    between atoms: C_11  and  C_12 
REMARK   10  A    between atoms: C_12  and  C_16 
REMARK   11  A    between atoms: C_13  and  C_22 
REMARK   12  A    between atoms: C_15  and  C_17 
REMARK   13  A    between atoms: C_15  and  C_20 
REMARK   14  A    between atoms: C_18  and  C_19 
REMARK   15  A    between atoms: C_18  and  C_21 
ROOT
HETATM    1  O   UNL     1      39.237  10.059  -6.859  1.00  0.00    -0.776 OA
HETATM    2  H   UNL     1      38.734  10.584  -6.221  1.00  0.00     0.167 HD
ENDROOT
BRANCH   1   3
HETATM    3  C   UNL     1      39.570   8.775  -6.605  1.00  0.00     0.139 C 
HETATM    4  O   UNL     1      40.077   8.473  -5.535  1.00  0.00    -0.650 OA
BRANCH   3   5
HETATM    5  C   UNL     1      39.325   7.720  -7.649  1.00  0.00     0.110 C 
BRANCH   5   6
HETATM    6  C   UNL     1      40.203   7.915  -8.893  1.00  0.00     0.014 C 
BRANCH   6   7
HETATM    7  C   UNL     1      39.510   7.459 -10.184  1.00  0.00     0.027 C 
BRANCH   7   8
HETATM    8  C   UNL     1      38.037   7.778 -10.109  1.00  0.00    -0.030 C 
HETATM    9  C   UNL     1      37.402   8.695 -10.862  1.00  0.00    -0.027 C 
BRANCH   9  10
HETATM   10  C   UNL     1      38.043   9.547 -11.929  1.00  0.00     0.053 C 
BRANCH  10  11
HETATM   11  C   UNL     1      38.814  10.698 -11.321  1.00  0.00    -0.027 C 
HETATM   12  C   UNL     1      40.146  10.903 -11.357  1.00  0.00    -0.027 C 
BRANCH  12  13
HETATM   13  C   UNL     1      41.180  10.038 -12.032  1.00  0.00     0.053 C 
BRANCH  13  14
HETATM   14  C   UNL     1      41.188  10.308 -13.518  1.00  0.00    -0.027 C 
HETATM   15  C   UNL     1      41.014   9.373 -14.475  1.00  0.00    -0.027 C 
BRANCH  15  16
HETATM   16  C   UNL     1      40.800   7.906 -14.206  1.00  0.00     0.053 C 
BRANCH  16  17
HETATM   17  C   UNL     1      39.337   7.543 -14.256  1.00  0.00    -0.027 C 
HETATM   18  C   UNL     1      38.690   7.185 -15.379  1.00  0.00    -0.030 C 
BRANCH  18  19
HETATM   19  C   UNL     1      39.321   7.105 -16.746  1.00  0.00     0.027 C 
BRANCH  19  20
HETATM   20  C   UNL     1      38.735   8.196 -17.648  1.00  0.00     0.004 C 
BRANCH  20  21
HETATM   21  C   UNL     1      39.343   8.140 -19.054  1.00  0.00    -0.000 C 
BRANCH  21  22
HETATM   22  C   UNL     1      40.868   8.280 -18.996  1.00  0.00    -0.005 C 
HETATM   23  C   UNL     1      41.277   9.590 -18.330  1.00  0.00     0.005 C 
ENDBRANCH  21  22
ENDBRANCH  20  21
ENDBRANCH  19  20
ENDBRANCH  18  19
ENDBRANCH  16  17
ENDBRANCH  15  16
ENDBRANCH  13  14
ENDBRANCH  12  13
ENDBRANCH  10  11
ENDBRANCH   9  10
ENDBRANCH   7   8
ENDBRANCH   6   7
ENDBRANCH   5   6
ENDBRANCH   3   5
ENDBRANCH   1   3
TORSDOF 15
ENDMDL
MODEL 2
REMARK VINA RESULT:      -4.8     24.533     26.272
REMARK  15 active torsions:
REMARK  status: ('A' for Active; 'I' for Inactive)
REMARK    1  A    between atoms: O_1  and  C_22 
REMARK    2  A    between atoms: C_3  and  C_4 
REMARK    3  A    between atoms: C_3  and  C_5 
REMARK    4  A    between atoms: C_4  and  C_6 
REMARK    5  A    between atoms: C_5  and  C_7 
REMARK    6  A    between atoms: C_9  and  C_10 
REMARK    7  A    between atoms: C_9  and  C_13 
REMARK    8  A    between atoms: C_10  and  C_14 
REMARK    9  A    between atoms: C_11  and  C_12 
REMARK   10  A    between atoms: C_12  and  C_16 
REMARK   11  A    between atoms: C_13  and  C_22 
REMARK   12  A    between atoms: C_15  and  C_17 
REMARK   13  A    between atoms: C_15  and  C_20 
REMARK   14  A    between atoms: C_18  and  C_19 
REMARK   15  A    between atoms: C_18  and  C_21 
ROOT
HETATM    1  O   UNL     1      30.124 -21.257  -9.306  1.00  0.00    -0.776 OA
HETATM    2  H   UNL     1      29.666 -21.157 -10.153  1.00  0.00     0.167 HD
ENDROOT
BRANCH   1   3
HETATM    3  C   UNL     1      30.281 -20.213  -8.465  1.00  0.00     0.139 C 
HETATM    4  O   UNL     1      30.887 -20.360  -7.413  1.00  0.00    -0.650 OA
BRANCH   3   5
HETATM    5  C   UNL     1      29.699 -18.872  -8.820  1.00  0.00     0.110 C 
BRANCH   5   6
HETATM    6  C   UNL     1      30.599 -17.710  -8.378  1.00  0.00     0.014 C 
BRANCH   6   7
HETATM    7  C   UNL     1      31.318 -17.038  -9.555  1.00  0.00     0.027 C 
BRANCH   7   8
HETATM    8  C   UNL     1      30.486 -17.177 -10.805  1.00  0.00    -0.030 C 
HETATM    9  C   UNL     1      30.514 -16.335 -11.855  1.00  0.00    -0.027 C 
BRANCH   9  10
HETATM   10  C   UNL     1      31.399 -15.119 -11.977  1.00  0.00     0.053 C 
BRANCH  10  11
HETATM   11  C   UNL     1      31.260 -14.475 -13.339  1.00  0.00    -0.027 C 
HETATM   12  C   UNL     1      30.366 -13.539 -13.716  1.00  0.00    -0.027 C 
BRANCH  12  13
HETATM   13  C   UNL     1      29.303 -12.901 -12.858  1.00  0.00     0.053 C 
BRANCH  13  14
HETATM   14  C   UNL     1      28.057 -13.755 -12.857  1.00  0.00    -0.027 C 
HETATM   15  C   UNL     1      27.250 -13.944 -11.794  1.00  0.00    -0.027 C 
BRANCH  15  16
HETATM   16  C   UNL     1      27.478 -13.344 -10.431  1.00  0.00     0.053 C 
BRANCH  16  17
HETATM   17  C   UNL     1      28.322 -14.245  -9.564  1.00  0.00    -0.027 C 
HETATM   18  C   UNL     1      29.485 -13.871  -9.002  1.00  0.00    -0.030 C 
BRANCH  18  19
HETATM   19  C   UNL     1      30.120 -12.513  -9.163  1.00  0.00     0.027 C 
BRANCH  19  20
HETATM   20  C   UNL     1      31.578 -12.677  -9.606  1.00  0.00     0.004 C 
BRANCH  20  21
HETATM   21  C   UNL     1      32.403 -11.430  -9.269  1.00  0.00    -0.000 C 
BRANCH  21  22
HETATM   22  C   UNL     1      32.625 -10.568 -10.517  1.00  0.00    -0.005 C 
HETATM   23  C   UNL     1      32.887 -11.433 -11.746  1.00  0.00     0.005 C 
ENDBRANCH  21  22
ENDBRANCH  20  21
ENDBRANCH  19  20
ENDBRANCH  18  19
ENDBRANCH  16  17
ENDBRANCH  15  16
ENDBRANCH  13  14
ENDBRANCH  12  13
ENDBRANCH  10  11
ENDBRANCH   9  10
ENDBRANCH   7   8
ENDBRANCH   6   7
ENDBRANCH   5   6
ENDBRANCH   3   5
ENDBRANCH   1   3
TORSDOF 15
ENDMDL
MODEL 3
REMARK VINA RESULT:      -4.8     24.179     26.067
REMARK  15 active torsions:
REMARK  status: ('A' for Active; 'I' for Inactive)
REMARK    1  A    between atoms: O_1  and  C_22 
REMARK    2  A    between atoms: C_3  and  C_4 
REMARK    3  A    between atoms: C_3  and  C_5 
REMARK    4  A    between atoms: C_4  and  C_6 
REMARK    5  A    between atoms: C_5  and  C_7 
REMARK    6  A    between atoms: C_9  and  C_10 
REMARK    7  A    between atoms: C_9  and  C_13 
REMARK    8  A    between atoms: C_10  and  C_14 
REMARK    9  A    between atoms: C_11  and  C_12 
REMARK   10  A    between atoms: C_12  and  C_16 
REMARK   11  A    between atoms: C_13  and  C_22 
REMARK   12  A    between atoms: C_15  and  C_17 
REMARK   13  A    between atoms: C_15  and  C_20 
REMARK   14  A    between atoms: C_18  and  C_19 
REMARK   15  A    between atoms: C_18  and  C_21 
ROOT
HETATM    1  O   UNL     1      29.957 -20.969  -4.218  1.00  0.00    -0.776 OA
HETATM    2  H   UNL     1      29.247 -20.532  -3.727  1.00  0.00     0.167 HD
ENDROOT
BRANCH   1   3
HETATM    3  C   UNL     1      30.696 -20.302  -5.130  1.00  0.00     0.139 C 
HETATM    4  O   UNL     1      31.540 -20.894  -5.786  1.00  0.00    -0.650 OA
BRANCH   3   5
HETATM    5  C   UNL     1      30.485 -18.826  -5.328  1.00  0.00     0.110 C 
BRANCH   5   6
HETATM    6  C   UNL     1      30.264 -18.460  -6.802  1.00  0.00     0.014 C 
BRANCH   6   7
HETATM    7  C   UNL     1      30.451 -16.962  -7.074  1.00  0.00     0.027 C 
BRANCH   7   8
HETATM    8  C   UNL     1      31.378 -16.370  -6.042  1.00  0.00    -0.030 C 
HETATM    9  C   UNL     1      32.271 -15.389  -6.272  1.00  0.00    -0.027 C 
BRANCH   9  10
HETATM   10  C   UNL     1      32.486 -14.694  -7.593  1.00  0.00     0.053 C 
BRANCH  10  11
HETATM   11  C   UNL     1      33.779 -13.909  -7.595  1.00  0.00    -0.027 C 
HETATM   12  C   UNL     1      33.925 -12.569  -7.538  1.00  0.00    -0.027 C 
BRANCH  12  13
HETATM   13  C   UNL     1      32.827 -11.540  -7.437  1.00  0.00     0.053 C 
BRANCH  13  14
HETATM   14  C   UNL     1      32.944 -10.786  -6.134  1.00  0.00    -0.027 C 
HETATM   15  C   UNL     1      32.200 -11.022  -5.034  1.00  0.00    -0.027 C 
BRANCH  15  16
HETATM   16  C   UNL     1      31.121 -12.070  -4.942  1.00  0.00     0.053 C 
BRANCH  16  17
HETATM   17  C   UNL     1      29.773 -11.509  -5.321  1.00  0.00    -0.027 C 
HETATM   18  C   UNL     1      28.902 -12.134  -6.133  1.00  0.00    -0.030 C 
BRANCH  18  19
HETATM   19  C   UNL     1      29.145 -13.470  -6.790  1.00  0.00     0.027 C 
BRANCH  19  20
HETATM   20  C   UNL     1      28.389 -13.534  -8.121  1.00  0.00     0.004 C 
BRANCH  20  21
HETATM   21  C   UNL     1      29.358 -13.541  -9.309  1.00  0.00    -0.000 C 
BRANCH  21  22
HETATM   22  C   UNL     1      29.924 -12.138  -9.561  1.00  0.00    -0.005 C 
HETATM   23  C   UNL     1      31.055 -12.176 -10.584  1.00  0.00     0.005 C 
ENDBRANCH  21  22
ENDBRANCH  20  21
ENDBRANCH  19  20
ENDBRANCH  18  19
ENDBRANCH  16  17
ENDBRANCH  15  16
ENDBRANCH  13  14
ENDBRANCH  12  13
ENDBRANCH  10  11
ENDBRANCH   9  10
ENDBRANCH   7   8
ENDBRANCH   6   7
ENDBRANCH   5   6
ENDBRANCH   3   5
ENDBRANCH   1   3
TORSDOF 15
ENDMDL
MODEL 4
REMARK VINA RESULT:      -4.8      3.803      6.058
REMARK  15 active torsions:
REMARK  status: ('A' for Active; 'I' for Inactive)
REMARK    1  A    between atoms: O_1  and  C_22 
REMARK    2  A    between atoms: C_3  and  C_4 
REMARK    3  A    between atoms: C_3  and  C_5 
REMARK    4  A    between atoms: C_4  and  C_6 
REMARK    5  A    between atoms: C_5  and  C_7 
REMARK    6  A    between atoms: C_9  and  C_10 
REMARK    7  A    between atoms: C_9  and  C_13 
REMARK    8  A    between atoms: C_10  and  C_14 
REMARK    9  A    between atoms: C_11  and  C_12 
REMARK   10  A    between atoms: C_12  and  C_16 
REMARK   11  A    between atoms: C_13  and  C_22 
REMARK   12  A    between atoms: C_15  and  C_17 
REMARK   13  A    between atoms: C_15  and  C_20 
REMARK   14  A    between atoms: C_18  and  C_19 
REMARK   15  A    between atoms: C_18  and  C_21 
ROOT
HETATM    1  O   UNL     1      39.443   6.728 -18.192  1.00  0.00    -0.776 OA
HETATM    2  H   UNL     1      39.109   5.822 -18.249  1.00  0.00     0.167 HD
ENDROOT
BRANCH   1   3
HETATM    3  C   UNL     1      39.242   7.483 -17.090  1.00  0.00     0.139 C 
HETATM    4  O   UNL     1      38.689   8.569 -17.184  1.00  0.00    -0.650 OA
BRANCH   3   5
HETATM    5  C   UNL     1      39.712   6.988 -15.750  1.00  0.00     0.110 C 
BRANCH   5   6
HETATM    6  C   UNL     1      38.697   7.274 -14.634  1.00  0.00     0.014 C 
BRANCH   6   7
HETATM    7  C   UNL     1      39.364   7.488 -13.269  1.00  0.00     0.027 C 
BRANCH   7   8
HETATM    8  C   UNL     1      38.510   8.398 -12.423  1.00  0.00    -0.030 C 
HETATM    9  C   UNL     1      38.198   8.191 -11.130  1.00  0.00    -0.027 C 
BRANCH   9  10
HETATM   10  C   UNL     1      38.668   7.027 -10.294  1.00  0.00     0.053 C 
BRANCH  10  11
HETATM   11  C   UNL     1      39.004   7.465  -8.885  1.00  0.00    -0.027 C 
HETATM   12  C   UNL     1      40.123   8.090  -8.466  1.00  0.00    -0.027 C 
BRANCH  12  13
HETATM   13  C   UNL     1      41.295   8.518  -9.312  1.00  0.00     0.053 C 
BRANCH  13  14
HETATM   14  C   UNL     1      41.366  10.026  -9.372  1.00  0.00    -0.027 C 
HETATM   15  C   UNL     1      41.379  10.755 -10.506  1.00  0.00    -0.027 C 
BRANCH  15  16
HETATM   16  C   UNL     1      41.341  10.174 -11.895  1.00  0.00     0.053 C 
BRANCH  16  17
HETATM   17  C   UNL     1      42.031  11.074 -12.890  1.00  0.00    -0.027 C 
HETATM   18  C   UNL     1      41.575  11.306 -14.133  1.00  0.00    -0.030 C 
BRANCH  18  19
HETATM   19  C   UNL     1      40.324  10.700 -14.718  1.00  0.00     0.027 C 
BRANCH  19  20
HETATM   20  C   UNL     1      39.119  11.586 -14.387  1.00  0.00     0.004 C 
BRANCH  20  21
HETATM   21  C   UNL     1      38.020  11.446 -15.445  1.00  0.00    -0.000 C 
BRANCH  21  22
HETATM   22  C   UNL     1      36.873  10.568 -14.929  1.00  0.00    -0.005 C 
HETATM   23  C   UNL     1      35.861  11.393 -14.139  1.00  0.00     0.005 C 
ENDBRANCH  21  22
ENDBRANCH  20  21
ENDBRANCH  19  20
ENDBRANCH  18  19
ENDBRANCH  16  17
ENDBRANCH  15  16
ENDBRANCH  13  14
ENDBRANCH  12  13
ENDBRANCH  10  11
ENDBRANCH   9  10
ENDBRANCH   7   8
ENDBRANCH   6   7
ENDBRANCH   5   6
ENDBRANCH   3   5
ENDBRANCH   1   3
TORSDOF 15
ENDMDL
MODEL 5
REMARK VINA RESULT:      -4.8     24.829     26.446
REMARK  15 active torsions:
REMARK  status: ('A' for Active; 'I' for Inactive)
REMARK    1  A    between atoms: O_1  and  C_22 
REMARK    2  A    between atoms: C_3  and  C_4 
REMARK    3  A    between atoms: C_3  and  C_5 
REMARK    4  A    between atoms: C_4  and  C_6 
REMARK    5  A    between atoms: C_5  and  C_7 
REMARK    6  A    between atoms: C_9  and  C_10 
REMARK    7  A    between atoms: C_9  and  C_13 
REMARK    8  A    between atoms: C_10  and  C_14 
REMARK    9  A    between atoms: C_11  and  C_12 
REMARK   10  A    between atoms: C_12  and  C_16 
REMARK   11  A    between atoms: C_13  and  C_22 
REMARK   12  A    between atoms: C_15  and  C_17 
REMARK   13  A    between atoms: C_15  and  C_20 
REMARK   14  A    between atoms: C_18  and  C_19 
REMARK   15  A    between atoms: C_18  and  C_21 
ROOT
HETATM    1  O   UNL     1      29.857 -21.037  -8.782  1.00  0.00    -0.776 OA
HETATM    2  H   UNL     1      30.588 -21.589  -8.472  1.00  0.00     0.167 HD
ENDROOT
BRANCH   1   3
HETATM    3  C   UNL     1      30.066 -19.783  -9.235  1.00  0.00     0.139 C 
HETATM    4  O   UNL     1      29.360 -18.864  -8.844  1.00  0.00    -0.650 OA
BRANCH   3   5
HETATM    5  C   UNL     1      31.162 -19.521 -10.231  1.00  0.00     0.110 C 
BRANCH   5   6
HETATM    6  C   UNL     1      30.774 -19.948 -11.653  1.00  0.00     0.014 C 
BRANCH   6   7
HETATM    7  C   UNL     1      30.424 -18.757 -12.555  1.00  0.00     0.027 C 
BRANCH   7   8
HETATM    8  C   UNL     1      30.409 -19.198 -13.997  1.00  0.00    -0.030 C 
HETATM    9  C   UNL     1      30.227 -18.386 -15.055  1.00  0.00    -0.027 C 
BRANCH   9  10
HETATM   10  C   UNL     1      30.030 -16.892 -14.988  1.00  0.00     0.053 C 
BRANCH  10  11
HETATM   11  C   UNL     1      31.193 -16.157 -15.616  1.00  0.00    -0.027 C 
HETATM   12  C   UNL     1      32.197 -15.517 -14.983  1.00  0.00    -0.027 C 
BRANCH  12  13
HETATM   13  C   UNL     1      32.405 -15.403 -13.494  1.00  0.00     0.053 C 
BRANCH  13  14
HETATM   14  C   UNL     1      33.024 -14.066 -13.160  1.00  0.00    -0.027 C 
HETATM   15  C   UNL     1      32.562 -13.212 -12.224  1.00  0.00    -0.027 C 
BRANCH  15  16
HETATM   16  C   UNL     1      31.341 -13.453 -11.376  1.00  0.00     0.053 C 
BRANCH  16  17
HETATM   17  C   UNL     1      30.303 -12.379 -11.584  1.00  0.00    -0.027 C 
HETATM   18  C   UNL     1      29.303 -12.465 -12.479  1.00  0.00    -0.030 C 
BRANCH  18  19
HETATM   19  C   UNL     1      29.079 -13.631 -13.408  1.00  0.00     0.027 C 
BRANCH  19  20
HETATM   20  C   UNL     1      29.146 -13.151 -14.862  1.00  0.00     0.004 C 
BRANCH  20  21
HETATM   21  C   UNL     1      29.872 -11.805 -14.968  1.00  0.00    -0.000 C 
BRANCH  21  22
HETATM   22  C   UNL     1      31.204 -11.961 -15.711  1.00  0.00    -0.005 C 
HETATM   23  C   UNL     1      32.246 -10.979 -15.184  1.00  0.00     0.005 C 
ENDBRANCH  21  22
ENDBRANCH  20  21
ENDBRANCH  19  20
ENDBRANCH  18  19
ENDBRANCH  16  17
ENDBRANCH  15  16
ENDBRANCH  13  14
ENDBRANCH  12  13
ENDBRANCH  10  11
ENDBRANCH   9  10
ENDBRANCH   7   8
ENDBRANCH   6   7
ENDBRANCH   5   6
ENDBRANCH   3   5
ENDBRANCH   1   3
TORSDOF 15
ENDMDL
MODEL 6
REMARK VINA RESULT:      -4.8     26.073     27.814
REMARK  15 active torsions:
REMARK  status: ('A' for Active; 'I' for Inactive)
REMARK    1  A    between atoms: O_1  and  C_22 
REMARK    2  A    between atoms: C_3  and  C_4 
REMARK    3  A    between atoms: C_3  and  C_5 
REMARK    4  A    between atoms: C_4  and  C_6 
REMARK    5  A    between atoms: C_5  and  C_7 
REMARK    6  A    between atoms: C_9  and  C_10 
REMARK    7  A    between atoms: C_9  and  C_13 
REMARK    8  A    between atoms: C_10  and  C_14 
REMARK    9  A    between atoms: C_11  and  C_12 
REMARK   10  A    between atoms: C_12  and  C_16 
REMARK   11  A    between atoms: C_13  and  C_22 
REMARK   12  A    between atoms: C_15  and  C_17 
REMARK   13  A    between atoms: C_15  and  C_20 
REMARK   14  A    between atoms: C_18  and  C_19 
REMARK   15  A    between atoms: C_18  and  C_21 
ROOT
HETATM    1  O   UNL     1      31.652 -21.274 -15.066  1.00  0.00    -0.776 OA
HETATM    2  H   UNL     1      31.264 -21.747 -14.317  1.00  0.00     0.167 HD
ENDROOT
BRANCH   1   3
HETATM    3  C   UNL     1      30.997 -20.262 -15.674  1.00  0.00     0.139 C 
HETATM    4  O   UNL     1      30.931 -20.221 -16.894  1.00  0.00    -0.650 OA
BRANCH   3   5
HETATM    5  C   UNL     1      30.360 -19.180 -14.846  1.00  0.00     0.110 C 
BRANCH   5   6
HETATM    6  C   UNL     1      29.860 -19.700 -13.491  1.00  0.00     0.014 C 
BRANCH   6   7
HETATM    7  C   UNL     1      30.516 -18.983 -12.304  1.00  0.00     0.027 C 
BRANCH   7   8
HETATM    8  C   UNL     1      30.976 -19.999 -11.289  1.00  0.00    -0.030 C 
HETATM    9  C   UNL     1      30.701 -19.960  -9.971  1.00  0.00    -0.027 C 
BRANCH   9  10
HETATM   10  C   UNL     1      29.865 -18.910  -9.284  1.00  0.00     0.053 C 
BRANCH  10  11
HETATM   11  C   UNL     1      30.711 -17.733  -8.852  1.00  0.00    -0.027 C 
HETATM   12  C   UNL     1      30.640 -16.463  -9.302  1.00  0.00    -0.027 C 
BRANCH  12  13
HETATM   13  C   UNL     1      29.682 -15.917 -10.330  1.00  0.00     0.053 C 
BRANCH  13  14
HETATM   14  C   UNL     1      28.660 -15.027  -9.662  1.00  0.00    -0.027 C 
HETATM   15  C   UNL     1      28.346 -13.777 -10.058  1.00  0.00    -0.027 C 
BRANCH  15  16
HETATM   16  C   UNL     1      28.983 -13.065 -11.223  1.00  0.00     0.053 C 
BRANCH  16  17
HETATM   17  C   UNL     1      30.309 -12.457 -10.841  1.00  0.00    -0.027 C 
HETATM   18  C   UNL     1      31.355 -12.351 -11.680  1.00  0.00    -0.030 C 
BRANCH  18  19
HETATM   19  C   UNL     1      31.363 -12.830 -13.109  1.00  0.00     0.027 C 
BRANCH  19  20
HETATM   20  C   UNL     1      31.661 -14.332 -13.147  1.00  0.00     0.004 C 
BRANCH  20  21
HETATM   21  C   UNL     1      30.981 -15.003 -14.345  1.00  0.00    -0.000 C 
BRANCH  21  22
HETATM   22  C   UNL     1      29.639 -15.622 -13.936  1.00  0.00    -0.005 C 
HETATM   23  C   UNL     1      28.477 -14.936 -14.648  1.00  0.00     0.005 C 
ENDBRANCH  21  22
ENDBRANCH  20  21
ENDBRANCH  19  20
ENDBRANCH  18  19
ENDBRANCH  16  17
ENDBRANCH  15  16
ENDBRANCH  13  14
ENDBRANCH  12  13
ENDBRANCH  10  11
ENDBRANCH   9  10
ENDBRANCH   7   8
ENDBRANCH   6   7
ENDBRANCH   5   6
ENDBRANCH   3   5
ENDBRANCH   1   3
TORSDOF 15
ENDMDL
MODEL 7
REMARK VINA RESULT:      -4.8      3.542      9.024
REMARK  15 active torsions:
REMARK  status: ('A' for Active; 'I' for Inactive)
REMARK    1  A    between atoms: O_1  and  C_22 
REMARK    2  A    between atoms: C_3  and  C_4 
REMARK    3  A    between atoms: C_3  and  C_5 
REMARK    4  A    between atoms: C_4  and  C_6 
REMARK    5  A    between atoms: C_5  and  C_7 
REMARK    6  A    between atoms: C_9  and  C_10 
REMARK    7  A    between atoms: C_9  and  C_13 
REMARK    8  A    between atoms: C_10  and  C_14 
REMARK    9  A    between atoms: C_11  and  C_12 
REMARK   10  A    between atoms: C_12  and  C_16 
REMARK   11  A    between atoms: C_13  and  C_22 
REMARK   12  A    between atoms: C_15  and  C_17 
REMARK   13  A    between atoms: C_15  and  C_20 
REMARK   14  A    between atoms: C_18  and  C_19 
REMARK   15  A    between atoms: C_18  and  C_21 
ROOT
HETATM    1  O   UNL     1      38.174   6.731 -15.362  1.00  0.00    -0.776 OA
HETATM    2  H   UNL     1      38.162   5.832 -15.003  1.00  0.00     0.167 HD
ENDROOT
BRANCH   1   3
HETATM    3  C   UNL     1      38.666   7.766 -14.649  1.00  0.00     0.139 C 
HETATM    4  O   UNL     1      38.331   8.910 -14.919  1.00  0.00    -0.650 OA
BRANCH   3   5
HETATM    5  C   UNL     1      39.637   7.508 -13.530  1.00  0.00     0.110 C 
BRANCH   5   6
HETATM    6  C   UNL     1      39.478   8.509 -12.377  1.00  0.00     0.014 C 
BRANCH   6   7
HETATM    7  C   UNL     1      40.741   9.350 -12.145  1.00  0.00     0.027 C 
BRANCH   7   8
HETATM    8  C   UNL     1      40.575  10.182 -10.899  1.00  0.00    -0.030 C 
HETATM    9  C   UNL     1      40.680   9.721  -9.638  1.00  0.00    -0.027 C 
BRANCH   9  10
HETATM   10  C   UNL     1      41.003   8.300  -9.251  1.00  0.00     0.053 C 
BRANCH  10  11
HETATM   11  C   UNL     1      39.744   7.499  -9.003  1.00  0.00    -0.027 C 
HETATM   12  C   UNL     1      39.239   7.112  -7.813  1.00  0.00    -0.027 C 
BRANCH  12  13
HETATM   13  C   UNL     1      39.805   7.407  -6.448  1.00  0.00     0.053 C 
BRANCH  13  14
HETATM   14  C   UNL     1      38.748   7.185  -5.391  1.00  0.00    -0.027 C 
HETATM   15  C   UNL     1      38.920   7.392  -4.070  1.00  0.00    -0.027 C 
BRANCH  15  16
HETATM   16  C   UNL     1      40.205   7.862  -3.439  1.00  0.00     0.053 C 
BRANCH  16  17
HETATM   17  C   UNL     1      40.124   9.313  -3.035  1.00  0.00    -0.027 C 
HETATM   18  C   UNL     1      40.687  10.318  -3.728  1.00  0.00    -0.030 C 
BRANCH  18  19
HETATM   19  C   UNL     1      41.487  10.146  -4.995  1.00  0.00     0.027 C 
BRANCH  19  20
HETATM   20  C   UNL     1      40.803  10.897  -6.142  1.00  0.00     0.004 C 
BRANCH  20  21
HETATM   21  C   UNL     1      39.311  11.100  -5.859  1.00  0.00    -0.000 C 
BRANCH  21  22
HETATM   22  C   UNL     1      38.521  11.238  -7.167  1.00  0.00    -0.005 C 
HETATM   23  C   UNL     1      37.420  10.187  -7.259  1.00  0.00     0.005 C 
ENDBRANCH  21  22
ENDBRANCH  20  21
ENDBRANCH  19  20
ENDBRANCH  18  19
ENDBRANCH  16  17
ENDBRANCH  15  16
ENDBRANCH  13  14
ENDBRANCH  12  13
ENDBRANCH  10  11
ENDBRANCH   9  10
ENDBRANCH   7   8
ENDBRANCH   6   7
ENDBRANCH   5   6
ENDBRANCH   3   5
ENDBRANCH   1   3
TORSDOF 15
ENDMDL
MODEL 8
REMARK VINA RESULT:      -4.8      4.238      9.399
REMARK  15 active torsions:
REMARK  status: ('A' for Active; 'I' for Inactive)
REMARK    1  A    between atoms: O_1  and  C_22 
REMARK    2  A    between atoms: C_3  and  C_4 
REMARK    3  A    between atoms: C_3  and  C_5 
REMARK    4  A    between atoms: C_4  and  C_6 
REMARK    5  A    between atoms: C_5  and  C_7 
REMARK    6  A    between atoms: C_9  and  C_10 
REMARK    7  A    between atoms: C_9  and  C_13 
REMARK    8  A    between atoms: C_10  and  C_14 
REMARK    9  A    between atoms: C_11  and  C_12 
REMARK   10  A    between atoms: C_12  and  C_16 
REMARK   11  A    between atoms: C_13  and  C_22 
REMARK   12  A    between atoms: C_15  and  C_17 
REMARK   13  A    between atoms: C_15  and  C_20 
REMARK   14  A    between atoms: C_18  and  C_19 
REMARK   15  A    between atoms: C_18  and  C_21 
ROOT
HETATM    1  O   UNL     1      39.216   6.740 -19.139  1.00  0.00    -0.776 OA
HETATM    2  H   UNL     1      39.557   6.012 -19.677  1.00  0.00     0.167 HD
ENDROOT
BRANCH   1   3
HETATM    3  C   UNL     1      40.037   7.681 -18.627  1.00  0.00     0.139 C 
HETATM    4  O   UNL     1      41.008   8.059 -19.265  1.00  0.00    -0.650 OA
BRANCH   3   5
HETATM    5  C   UNL     1      39.761   8.253 -17.264  1.00  0.00     0.110 C 
BRANCH   5   6
HETATM    6  C   UNL     1      38.451   7.723 -16.663  1.00  0.00     0.014 C 
BRANCH   6   7
HETATM    7  C   UNL     1      38.597   7.318 -15.190  1.00  0.00     0.027 C 
BRANCH   7   8
HETATM    8  C   UNL     1      38.009   8.390 -14.308  1.00  0.00    -0.030 C 
HETATM    9  C   UNL     1      38.538   8.815 -13.145  1.00  0.00    -0.027 C 
BRANCH   9  10
HETATM   10  C   UNL     1      39.822   8.313 -12.533  1.00  0.00     0.053 C 
BRANCH  10  11
HETATM   11  C   UNL     1      40.920   9.349 -12.637  1.00  0.00    -0.027 C 
HETATM   12  C   UNL     1      41.247  10.291 -11.729  1.00  0.00    -0.027 C 
BRANCH  12  13
HETATM   13  C   UNL     1      40.604  10.519 -10.385  1.00  0.00     0.053 C 
BRANCH  13  14
HETATM   14  C   UNL     1      41.382   9.797  -9.311  1.00  0.00    -0.027 C 
HETATM   15  C   UNL     1      40.920   8.758  -8.586  1.00  0.00    -0.027 C 
BRANCH  15  16
HETATM   16  C   UNL     1      39.541   8.166  -8.726  1.00  0.00     0.053 C 
BRANCH  16  17
HETATM   17  C   UNL     1      38.545   8.869  -7.839  1.00  0.00    -0.027 C 
HETATM   18  C   UNL     1      38.256   8.485  -6.584  1.00  0.00    -0.030 C 
BRANCH  18  19
HETATM   19  C   UNL     1      38.869   7.298  -5.885  1.00  0.00     0.027 C 
BRANCH  19  20
HETATM   20  C   UNL     1      40.045   7.761  -5.019  1.00  0.00     0.004 C 
BRANCH  20  21
HETATM   21  C   UNL     1      39.824   7.404  -3.545  1.00  0.00    -0.000 C 
BRANCH  21  22
HETATM   22  C   UNL     1      39.884   8.657  -2.664  1.00  0.00    -0.005 C 
HETATM   23  C   UNL     1      40.682   9.768  -3.340  1.00  0.00     0.005 C 
ENDBRANCH  21  22
ENDBRANCH  20  21
ENDBRANCH  19  20
ENDBRANCH  18  19
ENDBRANCH  16  17
ENDBRANCH  15  16
ENDBRANCH  13  14
ENDBRANCH  12  13
ENDBRANCH  10  11
ENDBRANCH   9  10
ENDBRANCH   7   8
ENDBRANCH   6   7
ENDBRANCH   5   6
ENDBRANCH   3   5
ENDBRANCH   1   3
TORSDOF 15
ENDMDL
MODEL 9
REMARK VINA RESULT:      -4.7     26.314     28.050
REMARK  15 active torsions:
REMARK  status: ('A' for Active; 'I' for Inactive)
REMARK    1  A    between atoms: O_1  and  C_22 
REMARK    2  A    between atoms: C_3  and  C_4 
REMARK    3  A    between atoms: C_3  and  C_5 
REMARK    4  A    between atoms: C_4  and  C_6 
REMARK    5  A    between atoms: C_5  and  C_7 
REMARK    6  A    between atoms: C_9  and  C_10 
REMARK    7  A    between atoms: C_9  and  C_13 
REMARK    8  A    between atoms: C_10  and  C_14 
REMARK    9  A    between atoms: C_11  and  C_12 
REMARK   10  A    between atoms: C_12  and  C_16 
REMARK   11  A    between atoms: C_13  and  C_22 
REMARK   12  A    between atoms: C_15  and  C_17 
REMARK   13  A    between atoms: C_15  and  C_20 
REMARK   14  A    between atoms: C_18  and  C_19 
REMARK   15  A    between atoms: C_18  and  C_21 
ROOT
HETATM    1  O   UNL     1      32.118 -20.890  -9.917  1.00  0.00    -0.776 OA
HETATM    2  H   UNL     1      32.743 -20.314  -9.455  1.00  0.00     0.167 HD
ENDROOT
BRANCH   1   3
HETATM    3  C   UNL     1      31.099 -20.382 -10.644  1.00  0.00     0.139 C 
HETATM    4  O   UNL     1      30.838 -20.850 -11.742  1.00  0.00    -0.650 OA
BRANCH   3   5
HETATM    5  C   UNL     1      30.296 -19.232 -10.102  1.00  0.00     0.110 C 
BRANCH   5   6
HETATM    6  C   UNL     1      30.782 -17.877 -10.635  1.00  0.00     0.014 C 
BRANCH   6   7
HETATM    7  C   UNL     1      30.203 -17.542 -12.016  1.00  0.00     0.027 C 
BRANCH   7   8
HETATM    8  C   UNL     1      31.321 -17.190 -12.964  1.00  0.00    -0.030 C 
HETATM    9  C   UNL     1      31.349 -17.489 -14.277  1.00  0.00    -0.027 C 
BRANCH   9  10
HETATM   10  C   UNL     1      30.259 -18.205 -15.034  1.00  0.00     0.053 C 
BRANCH  10  11
HETATM   11  C   UNL     1      30.521 -19.694 -15.093  1.00  0.00    -0.027 C 
HETATM   12  C   UNL     1      30.912 -20.416 -16.163  1.00  0.00    -0.027 C 
BRANCH  12  13
HETATM   13  C   UNL     1      31.201 -19.900 -17.550  1.00  0.00     0.053 C 
BRANCH  13  14
HETATM   14  C   UNL     1      29.970 -19.234 -18.119  1.00  0.00    -0.027 C 
HETATM   15  C   UNL     1      29.967 -18.073 -18.805  1.00  0.00    -0.027 C 
BRANCH  15  16
HETATM   16  C   UNL     1      31.194 -17.249 -19.095  1.00  0.00     0.053 C 
BRANCH  16  17
HETATM   17  C   UNL     1      31.682 -16.531 -17.861  1.00  0.00    -0.027 C 
HETATM   18  C   UNL     1      31.177 -15.364 -17.424  1.00  0.00    -0.030 C 
BRANCH  18  19
HETATM   19  C   UNL     1      30.068 -14.599 -18.101  1.00  0.00     0.027 C 
BRANCH  19  20
HETATM   20  C   UNL     1      30.314 -13.095 -17.952  1.00  0.00     0.004 C 
BRANCH  20  21
HETATM   21  C   UNL     1      29.209 -12.431 -17.123  1.00  0.00    -0.000 C 
BRANCH  21  22
HETATM   22  C   UNL     1      29.731 -12.029 -15.739  1.00  0.00    -0.005 C 
HETATM   23  C   UNL     1      29.407 -13.095 -14.696  1.00  0.00     0.005 C 
ENDBRANCH  21  22
ENDBRANCH  20  21
ENDBRANCH  19  20
ENDBRANCH  18  19
ENDBRANCH  16  17
ENDBRANCH  15  16
ENDBRANCH  13  14
ENDBRANCH  12  13
ENDBRANCH  10  11
ENDBRANCH   9  10
ENDBRANCH   7   8
ENDBRANCH   6   7
ENDBRANCH   5   6
ENDBRANCH   3   5
ENDBRANCH   1   3
TORSDOF 15
ENDMDL
MODEL 10
REMARK VINA RESULT:      -4.7      3.398      5.535
REMARK  15 active torsions:
REMARK  status: ('A' for Active; 'I' for Inactive)
REMARK    1  A    between atoms: O_1  and  C_22 
REMARK    2  A    between atoms: C_3  and  C_4 
REMARK    3  A    between atoms: C_3  and  C_5 
REMARK    4  A    between atoms: C_4  and  C_6 
REMARK    5  A    between atoms: C_5  and  C_7 
REMARK    6  A    between atoms: C_9  and  C_10 
REMARK    7  A    between atoms: C_9  and  C_13 
REMARK    8  A    between atoms: C_10  and  C_14 
REMARK    9  A    between atoms: C_11  and  C_12 
REMARK   10  A    between atoms: C_12  and  C_16 
REMARK   11  A    between atoms: C_13  and  C_22 
REMARK   12  A    between atoms: C_15  and  C_17 
REMARK   13  A    between atoms: C_15  and  C_20 
REMARK   14  A    between atoms: C_18  and  C_19 
REMARK   15  A    between atoms: C_18  and  C_21 
ROOT
HETATM    1  O   UNL     1      37.690  12.024  -6.959  1.00  0.00    -0.776 OA
HETATM    2  H   UNL     1      38.596  11.756  -6.748  1.00  0.00     0.167 HD
ENDROOT
BRANCH   1   3
HETATM    3  C   UNL     1      36.670  11.140  -6.926  1.00  0.00     0.139 C 
HETATM    4  O   UNL     1      35.747  11.240  -7.721  1.00  0.00    -0.650 OA
BRANCH   3   5
HETATM    5  C   UNL     1      36.667  10.040  -5.901  1.00  0.00     0.110 C 
BRANCH   5   6
HETATM    6  C   UNL     1      37.602   8.883  -6.283  1.00  0.00     0.014 C 
BRANCH   6   7
HETATM    7  C   UNL     1      38.008   8.027  -5.076  1.00  0.00     0.027 C 
BRANCH   7   8
HETATM    8  C   UNL     1      39.452   7.614  -5.209  1.00  0.00    -0.030 C 
HETATM    9  C   UNL     1      40.509   8.443  -5.116  1.00  0.00    -0.027 C 
BRANCH   9  10
HETATM   10  C   UNL     1      40.437   9.923  -4.839  1.00  0.00     0.053 C 
BRANCH  10  11
HETATM   11  C   UNL     1      41.488  10.679  -5.623  1.00  0.00    -0.027 C 
HETATM   12  C   UNL     1      41.565  10.827  -6.961  1.00  0.00    -0.027 C 
BRANCH  12  13
HETATM   13  C   UNL     1      40.605  10.287  -7.991  1.00  0.00     0.053 C 
BRANCH  13  14
HETATM   14  C   UNL     1      41.339   9.399  -8.967  1.00  0.00    -0.027 C 
HETATM   15  C   UNL     1      40.950   8.160  -9.331  1.00  0.00    -0.027 C 
BRANCH  15  16
HETATM   16  C   UNL     1      39.724   7.461  -8.802  1.00  0.00     0.053 C 
BRANCH  16  17
HETATM   17  C   UNL     1      38.804   7.038  -9.920  1.00  0.00    -0.027 C 
HETATM   18  C   UNL     1      37.875   7.839 -10.470  1.00  0.00    -0.030 C 
BRANCH  18  19
HETATM   19  C   UNL     1      37.607   9.262 -10.049  1.00  0.00     0.027 C 
BRANCH  19  20
HETATM   20  C   UNL     1      37.034  10.049 -11.232  1.00  0.00     0.004 C 
BRANCH  20  21
HETATM   21  C   UNL     1      37.951   9.956 -12.456  1.00  0.00    -0.000 C 
BRANCH  21  22
HETATM   22  C   UNL     1      39.290  10.653 -12.191  1.00  0.00    -0.005 C 
HETATM   23  C   UNL     1      40.463   9.765 -12.595  1.00  0.00     0.005 C 
ENDBRANCH  21  22
ENDBRANCH  20  21
ENDBRANCH  19  20
ENDBRANCH  18  19
ENDBRANCH  16  17
ENDBRANCH  15  16
ENDBRANCH  13  14
ENDBRANCH  12  13
ENDBRANCH  10  11
ENDBRANCH   9  10
ENDBRANCH   7   8
ENDBRANCH   6   7
ENDBRANCH   5   6
ENDBRANCH   3   5
ENDBRANCH   1   3
TORSDOF 15
ENDMDL
MODEL 11
REMARK VINA RESULT:      -4.7     26.520     28.641
REMARK  15 active torsions:
REMARK  status: ('A' for Active; 'I' for Inactive)
REMARK    1  A    between atoms: O_1  and  C_22 
REMARK    2  A    between atoms: C_3  and  C_4 
REMARK    3  A    between atoms: C_3  and  C_5 
REMARK    4  A    between atoms: C_4  and  C_6 
REMARK    5  A    between atoms: C_5  and  C_7 
REMARK    6  A    between atoms: C_9  and  C_10 
REMARK    7  A    between atoms: C_9  and  C_13 
REMARK    8  A    between atoms: C_10  and  C_14 
REMARK    9  A    between atoms: C_11  and  C_12 
REMARK   10  A    between atoms: C_12  and  C_16 
REMARK   11  A    between atoms: C_13  and  C_22 
REMARK   12  A    between atoms: C_15  and  C_17 
REMARK   13  A    between atoms: C_15  and  C_20 
REMARK   14  A    between atoms: C_18  and  C_19 
REMARK   15  A    between atoms: C_18  and  C_21 
ROOT
HETATM    1  O   UNL     1      31.361 -21.364 -20.246  1.00  0.00    -0.776 OA
HETATM    2  H   UNL     1      30.719 -22.002 -19.905  1.00  0.00     0.167 HD
ENDROOT
BRANCH   1   3
HETATM    3  C   UNL     1      31.091 -20.042 -20.278  1.00  0.00     0.139 C 
HETATM    4  O   UNL     1      30.662 -19.530 -21.302  1.00  0.00    -0.650 OA
BRANCH   3   5
HETATM    5  C   UNL     1      31.329 -19.200 -19.055  1.00  0.00     0.110 C 
BRANCH   5   6
HETATM    6  C   UNL     1      30.186 -19.314 -18.037  1.00  0.00     0.014 C 
BRANCH   6   7
HETATM    7  C   UNL     1      30.615 -18.915 -16.619  1.00  0.00     0.027 C 
BRANCH   7   8
HETATM    8  C   UNL     1      30.965 -20.151 -15.828  1.00  0.00    -0.030 C 
HETATM    9  C   UNL     1      30.607 -20.383 -14.551  1.00  0.00    -0.027 C 
BRANCH   9  10
HETATM   10  C   UNL     1      29.775 -19.461 -13.695  1.00  0.00     0.053 C 
BRANCH  10  11
HETATM   11  C   UNL     1      30.417 -19.240 -12.343  1.00  0.00    -0.027 C 
HETATM   12  C   UNL     1      30.624 -18.064 -11.717  1.00  0.00    -0.027 C 
BRANCH  12  13
HETATM   13  C   UNL     1      30.244 -16.692 -12.212  1.00  0.00     0.053 C 
BRANCH  13  14
HETATM   14  C   UNL     1      31.194 -16.254 -13.302  1.00  0.00    -0.027 C 
HETATM   15  C   UNL     1      30.823 -15.816 -14.522  1.00  0.00    -0.027 C 
BRANCH  15  16
HETATM   16  C   UNL     1      29.396 -15.709 -14.993  1.00  0.00     0.053 C 
BRANCH  16  17
HETATM   17  C   UNL     1      29.028 -14.285 -15.324  1.00  0.00    -0.027 C 
HETATM   18  C   UNL     1      28.463 -13.434 -14.449  1.00  0.00    -0.030 C 
BRANCH  18  19
HETATM   19  C   UNL     1      28.106 -13.776 -13.025  1.00  0.00     0.027 C 
BRANCH  19  20
HETATM   20  C   UNL     1      29.124 -13.140 -12.072  1.00  0.00     0.004 C 
BRANCH  20  21
HETATM   21  C   UNL     1      28.425 -12.390 -10.933  1.00  0.00    -0.000 C 
BRANCH  21  22
HETATM   22  C   UNL     1      28.485 -13.195  -9.630  1.00  0.00    -0.005 C 
HETATM   23  C   UNL     1      29.525 -12.618  -8.674  1.00  0.00     0.005 C 
ENDBRANCH  21  22
ENDBRANCH  20  21
ENDBRANCH  19  20
ENDBRANCH  18  19
ENDBRANCH  16  17
ENDBRANCH  15  16
ENDBRANCH  13  14
ENDBRANCH  12  13
ENDBRANCH  10  11
ENDBRANCH   9  10
ENDBRANCH   7   8
ENDBRANCH   6   7
ENDBRANCH   5   6
ENDBRANCH   3   5
ENDBRANCH   1   3
TORSDOF 15
ENDMDL
MODEL 12
REMARK VINA RESULT:      -4.7      2.209      4.880
REMARK  15 active torsions:
REMARK  status: ('A' for Active; 'I' for Inactive)
REMARK    1  A    between atoms: O_1  and  C_22 
REMARK    2  A    between atoms: C_3  and  C_4 
REMARK    3  A    between atoms: C_3  and  C_5 
REMARK    4  A    between atoms: C_4  and  C_6 
REMARK    5  A    between atoms: C_5  and  C_7 
REMARK    6  A    between atoms: C_9  and  C_10 
REMARK    7  A    between atoms: C_9  and  C_13 
REMARK    8  A    between atoms: C_10  and  C_14 
REMARK    9  A    between atoms: C_11  and  C_12 
REMARK   10  A    between atoms: C_12  and  C_16 
REMARK   11  A    between atoms: C_13  and  C_22 
REMARK   12  A    between atoms: C_15  and  C_17 
REMARK   13  A    between atoms: C_15  and  C_20 
REMARK   14  A    between atoms: C_18  and  C_19 
REMARK   15  A    between atoms: C_18  and  C_21 
ROOT
HETATM    1  O   UNL     1      38.721   6.243 -10.091  1.00  0.00    -0.776 OA
HETATM    2  H   UNL     1      38.631   5.464  -9.525  1.00  0.00     0.167 HD
ENDROOT
BRANCH   1   3
HETATM    3  C   UNL     1      39.045   7.450  -9.580  1.00  0.00     0.139 C 
HETATM    4  O   UNL     1      39.958   7.548  -8.774  1.00  0.00    -0.650 OA
BRANCH   3   5
HETATM    5  C   UNL     1      38.272   8.671  -9.998  1.00  0.00     0.110 C 
BRANCH   5   6
HETATM    6  C   UNL     1      37.584   8.490 -11.358  1.00  0.00     0.014 C 
BRANCH   6   7
HETATM    7  C   UNL     1      38.244   9.317 -12.469  1.00  0.00     0.027 C 
BRANCH   7   8
HETATM    8  C   UNL     1      39.588   8.726 -12.813  1.00  0.00    -0.030 C 
HETATM    9  C   UNL     1      39.813   7.825 -13.788  1.00  0.00    -0.027 C 
BRANCH   9  10
HETATM   10  C   UNL     1      38.768   7.266 -14.720  1.00  0.00     0.053 C 
BRANCH  10  11
HETATM   11  C   UNL     1      39.398   6.694 -15.971  1.00  0.00    -0.027 C 
HETATM   12  C   UNL     1      39.343   7.197 -17.221  1.00  0.00    -0.027 C 
BRANCH  12  13
HETATM   13  C   UNL     1      38.653   8.464 -17.660  1.00  0.00     0.053 C 
BRANCH  13  14
HETATM   14  C   UNL     1      38.783   8.631 -19.156  1.00  0.00    -0.027 C 
HETATM   15  C   UNL     1      39.925   8.939 -19.803  1.00  0.00    -0.027 C 
BRANCH  15  16
HETATM   16  C   UNL     1      41.251   9.180 -19.129  1.00  0.00     0.053 C 
BRANCH  16  17
HETATM   17  C   UNL     1      41.483  10.649 -18.877  1.00  0.00    -0.027 C 
HETATM   18  C   UNL     1      41.535  11.201 -17.652  1.00  0.00    -0.030 C 
BRANCH  18  19
HETATM   19  C   UNL     1      41.357  10.444 -16.359  1.00  0.00     0.027 C 
BRANCH  19  20
HETATM   20  C   UNL     1      40.651  11.337 -15.333  1.00  0.00     0.004 C 
BRANCH  20  21
HETATM   21  C   UNL     1      39.128  11.241 -15.469  1.00  0.00    -0.000 C 
BRANCH  21  22
HETATM   22  C   UNL     1      38.539  12.566 -15.967  1.00  0.00    -0.005 C 
HETATM   23  C   UNL     1      37.157  12.359 -16.580  1.00  0.00     0.005 C 
ENDBRANCH  21  22
ENDBRANCH  20  21
ENDBRANCH  19  20
ENDBRANCH  18  19
ENDBRANCH  16  17
ENDBRANCH  15  16
ENDBRANCH  13  14
ENDBRANCH  12  13
ENDBRANCH  10  11
ENDBRANCH   9  10
ENDBRANCH   7   8
ENDBRANCH   6   7
ENDBRANCH   5   6
ENDBRANCH   3   5
ENDBRANCH   1   3
TORSDOF 15
ENDMDL
MODEL 13
REMARK VINA RESULT:      -4.7      3.972      7.248
REMARK  15 active torsions:
REMARK  status: ('A' for Active; 'I' for Inactive)
REMARK    1  A    between atoms: O_1  and  C_22 
REMARK    2  A    between atoms: C_3  and  C_4 
REMARK    3  A    between atoms: C_3  and  C_5 
REMARK    4  A    between atoms: C_4  and  C_6 
REMARK    5  A    between atoms: C_5  and  C_7 
REMARK    6  A    between atoms: C_9  and  C_10 
REMARK    7  A    between atoms: C_9  and  C_13 
REMARK    8  A    between atoms: C_10  and  C_14 
REMARK    9  A    between atoms: C_11  and  C_12 
REMARK   10  A    between atoms: C_12  and  C_16 
REMARK   11  A    between atoms: C_13  and  C_22 
REMARK   12  A    between atoms: C_15  and  C_17 
REMARK   13  A    between atoms: C_15  and  C_20 
REMARK   14  A    between atoms: C_18  and  C_19 
REMARK   15  A    between atoms: C_18  and  C_21 
ROOT
HETATM    1  O   UNL     1      39.402   6.659 -17.055  1.00  0.00    -0.776 OA
HETATM    2  H   UNL     1      39.719   7.077 -16.242  1.00  0.00     0.167 HD
ENDROOT
BRANCH   1   3
HETATM    3  C   UNL     1      39.303   7.353 -18.209  1.00  0.00     0.139 C 
HETATM    4  O   UNL     1      38.975   6.783 -19.240  1.00  0.00    -0.650 OA
BRANCH   3   5
HETATM    5  C   UNL     1      39.609   8.825 -18.225  1.00  0.00     0.110 C 
BRANCH   5   6
HETATM    6  C   UNL     1      41.117   9.107 -18.300  1.00  0.00     0.014 C 
BRANCH   6   7
HETATM    7  C   UNL     1      41.517  10.385 -17.552  1.00  0.00     0.027 C 
BRANCH   7   8
HETATM    8  C   UNL     1      40.393  10.814 -16.642  1.00  0.00    -0.030 C 
HETATM    9  C   UNL     1      40.300  10.520 -15.331  1.00  0.00    -0.027 C 
BRANCH   9  10
HETATM   10  C   UNL     1      41.312   9.733 -14.538  1.00  0.00     0.053 C 
BRANCH  10  11
HETATM   11  C   UNL     1      40.934   8.270 -14.466  1.00  0.00    -0.027 C 
HETATM   12  C   UNL     1      40.074   7.686 -13.608  1.00  0.00    -0.027 C 
BRANCH  12  13
HETATM   13  C   UNL     1      39.269   8.363 -12.528  1.00  0.00     0.053 C 
BRANCH  13  14
HETATM   14  C   UNL     1      40.034   8.346 -11.226  1.00  0.00    -0.027 C 
HETATM   15  C   UNL     1      40.523   9.437 -10.601  1.00  0.00    -0.027 C 
BRANCH  15  16
HETATM   16  C   UNL     1      40.395  10.846 -11.118  1.00  0.00     0.053 C 
BRANCH  16  17
HETATM   17  C   UNL     1      39.107  11.486 -10.664  1.00  0.00    -0.027 C 
HETATM   18  C   UNL     1      38.286  12.176 -11.475  1.00  0.00    -0.030 C 
BRANCH  18  19
HETATM   19  C   UNL     1      38.534  12.421 -12.942  1.00  0.00     0.027 C 
BRANCH  19  20
HETATM   20  C   UNL     1      37.231  12.224 -13.724  1.00  0.00     0.004 C 
BRANCH  20  21
HETATM   21  C   UNL     1      36.871  10.738 -13.835  1.00  0.00    -0.000 C 
BRANCH  21  22
HETATM   22  C   UNL     1      36.653  10.337 -15.299  1.00  0.00    -0.005 C 
HETATM   23  C   UNL     1      37.078   8.892 -15.544  1.00  0.00     0.005 C 
ENDBRANCH  21  22
ENDBRANCH  20  21
ENDBRANCH  19  20
ENDBRANCH  18  19
ENDBRANCH  16  17
ENDBRANCH  15  16
ENDBRANCH  13  14
ENDBRANCH  12  13
ENDBRANCH  10  11
ENDBRANCH   9  10
ENDBRANCH   7   8
ENDBRANCH   6   7
ENDBRANCH   5   6
ENDBRANCH   3   5
ENDBRANCH   1   3
TORSDOF 15
ENDMDL
MODEL 14
REMARK VINA RESULT:      -4.7     25.170     27.044
REMARK  15 active torsions:
REMARK  status: ('A' for Active; 'I' for Inactive)
REMARK    1  A    between atoms: O_1  and  C_22 
REMARK    2  A    between atoms: C_3  and  C_4 
REMARK    3  A    between atoms: C_3  and  C_5 
REMARK    4  A    between atoms: C_4  and  C_6 
REMARK    5  A    between atoms: C_5  and  C_7 
REMARK    6  A    between atoms: C_9  and  C_10 
REMARK    7  A    between atoms: C_9  and  C_13 
REMARK    8  A    between atoms: C_10  and  C_14 
REMARK    9  A    between atoms: C_11  and  C_12 
REMARK   10  A    between atoms: C_12  and  C_16 
REMARK   11  A    between atoms: C_13  and  C_22 
REMARK   12  A    between atoms: C_15  and  C_17 
REMARK   13  A    between atoms: C_15  and  C_20 
REMARK   14  A    between atoms: C_18  and  C_19 
REMARK   15  A    between atoms: C_18  and  C_21 
ROOT
HETATM    1  O   UNL     1      32.381 -20.746  -9.990  1.00  0.00    -0.776 OA
HETATM    2  H   UNL     1      32.890 -21.502 -10.315  1.00  0.00     0.167 HD
ENDROOT
BRANCH   1   3
HETATM    3  C   UNL     1      31.050 -20.655 -10.195  1.00  0.00     0.139 C 
HETATM    4  O   UNL     1      30.593 -20.784 -11.321  1.00  0.00    -0.650 OA
BRANCH   3   5
HETATM    5  C   UNL     1      30.133 -20.382  -9.034  1.00  0.00     0.110 C 
BRANCH   5   6
HETATM    6  C   UNL     1      29.478 -18.996  -9.120  1.00  0.00     0.014 C 
BRANCH   6   7
HETATM    7  C   UNL     1      30.447 -17.861  -8.763  1.00  0.00     0.027 C 
BRANCH   7   8
HETATM    8  C   UNL     1      29.839 -16.536  -9.147  1.00  0.00    -0.030 C 
HETATM    9  C   UNL     1      30.205 -15.793 -10.209  1.00  0.00    -0.027 C 
BRANCH   9  10
HETATM   10  C   UNL     1      31.266 -16.165 -11.213  1.00  0.00     0.053 C 
BRANCH  10  11
HETATM   11  C   UNL     1      30.698 -17.034 -12.314  1.00  0.00    -0.027 C 
HETATM   12  C   UNL     1      30.135 -16.629 -13.470  1.00  0.00    -0.027 C 
BRANCH  12  13
HETATM   13  C   UNL     1      29.957 -15.209 -13.945  1.00  0.00     0.053 C 
BRANCH  13  14
HETATM   14  C   UNL     1      28.573 -14.716 -13.594  1.00  0.00    -0.027 C 
HETATM   15  C   UNL     1      28.306 -13.613 -12.865  1.00  0.00    -0.027 C 
BRANCH  15  16
HETATM   16  C   UNL     1      29.354 -12.709 -12.271  1.00  0.00     0.053 C 
BRANCH  16  17
HETATM   17  C   UNL     1      28.962 -12.239 -10.892  1.00  0.00    -0.027 C 
HETATM   18  C   UNL     1      29.845 -11.928  -9.927  1.00  0.00    -0.030 C 
BRANCH  18  19
HETATM   19  C   UNL     1      31.343 -12.013 -10.072  1.00  0.00     0.027 C 
BRANCH  19  20
HETATM   20  C   UNL     1      31.947 -12.652  -8.817  1.00  0.00     0.004 C 
BRANCH  20  21
HETATM   21  C   UNL     1      30.858 -13.015  -7.801  1.00  0.00    -0.000 C 
BRANCH  21  22
HETATM   22  C   UNL     1      31.358 -14.087  -6.825  1.00  0.00    -0.005 C 
HETATM   23  C   UNL     1      32.591 -14.799  -7.372  1.00  0.00     0.005 C 
ENDBRANCH  21  22
ENDBRANCH  20  21
ENDBRANCH  19  20
ENDBRANCH  18  19
ENDBRANCH  16  17
ENDBRANCH  15  16
ENDBRANCH  13  14
ENDBRANCH  12  13
ENDBRANCH  10  11
ENDBRANCH   9  10
ENDBRANCH   7   8
ENDBRANCH   6   7
ENDBRANCH   5   6
ENDBRANCH   3   5
ENDBRANCH   1   3
TORSDOF 15
ENDMDL
MODEL 15
REMARK VINA RESULT:      -4.6      2.037      3.787
REMARK  15 active torsions:
REMARK  status: ('A' for Active; 'I' for Inactive)
REMARK    1  A    between atoms: O_1  and  C_22 
REMARK    2  A    between atoms: C_3  and  C_4 
REMARK    3  A    between atoms: C_3  and  C_5 
REMARK    4  A    between atoms: C_4  and  C_6 
REMARK    5  A    between atoms: C_5  and  C_7 
REMARK    6  A    between atoms: C_9  and  C_10 
REMARK    7  A    between atoms: C_9  and  C_13 
REMARK    8  A    between atoms: C_10  and  C_14 
REMARK    9  A    between atoms: C_11  and  C_12 
REMARK   10  A    between atoms: C_12  and  C_16 
REMARK   11  A    between atoms: C_13  and  C_22 
REMARK   12  A    between atoms: C_15  and  C_17 
REMARK   13  A    between atoms: C_15  and  C_20 
REMARK   14  A    between atoms: C_18  and  C_19 
REMARK   15  A    between atoms: C_18  and  C_21 
ROOT
HETATM    1  O   UNL     1      38.685  12.578  -6.772  1.00  0.00    -0.776 OA
HETATM    2  H   UNL     1      37.975  13.163  -7.071  1.00  0.00     0.167 HD
ENDROOT
BRANCH   1   3
HETATM    3  C   UNL     1      38.971  11.430  -7.423  1.00  0.00     0.139 C 
HETATM    4  O   UNL     1      39.022  10.374  -6.809  1.00  0.00    -0.650 OA
BRANCH   3   5
HETATM    5  C   UNL     1      39.239  11.457  -8.903  1.00  0.00     0.110 C 
BRANCH   5   6
HETATM    6  C   UNL     1      40.717  11.207  -9.233  1.00  0.00     0.014 C 
BRANCH   6   7
HETATM    7  C   UNL     1      40.932   9.921 -10.042  1.00  0.00     0.027 C 
BRANCH   7   8
HETATM    8  C   UNL     1      40.993   8.738  -9.109  1.00  0.00    -0.030 C 
HETATM    9  C   UNL     1      40.253   7.619  -9.225  1.00  0.00    -0.027 C 
BRANCH   9  10
HETATM   10  C   UNL     1      39.254   7.341 -10.320  1.00  0.00     0.053 C 
BRANCH  10  11
HETATM   11  C   UNL     1      37.922   7.995 -10.025  1.00  0.00    -0.027 C 
HETATM   12  C   UNL     1      37.293   8.940 -10.753  1.00  0.00    -0.027 C 
BRANCH  12  13
HETATM   13  C   UNL     1      37.765   9.552 -12.048  1.00  0.00     0.053 C 
BRANCH  13  14
HETATM   14  C   UNL     1      37.324  10.994 -12.129  1.00  0.00    -0.027 C 
HETATM   15  C   UNL     1      38.125  12.031 -12.447  1.00  0.00    -0.027 C 
BRANCH  15  16
HETATM   16  C   UNL     1      39.595  11.912 -12.754  1.00  0.00     0.053 C 
BRANCH  16  17
HETATM   17  C   UNL     1      39.831  11.598 -14.210  1.00  0.00    -0.027 C 
HETATM   18  C   UNL     1      40.499  10.515 -14.644  1.00  0.00    -0.030 C 
BRANCH  18  19
HETATM   19  C   UNL     1      41.117   9.469 -13.750  1.00  0.00     0.027 C 
BRANCH  19  20
HETATM   20  C   UNL     1      40.913   8.081 -14.365  1.00  0.00     0.004 C 
BRANCH  20  21
HETATM   21  C   UNL     1      39.620   7.434 -13.858  1.00  0.00    -0.000 C 
BRANCH  21  22
HETATM   22  C   UNL     1      38.724   7.013 -15.029  1.00  0.00    -0.005 C 
HETATM   23  C   UNL     1      37.757   8.129 -15.412  1.00  0.00     0.005 C 
ENDBRANCH  21  22
ENDBRANCH  20  21
ENDBRANCH  19  20
ENDBRANCH  18  19
ENDBRANCH  16  17
ENDBRANCH  15  16
ENDBRANCH  13  14
ENDBRANCH  12  13
ENDBRANCH  10  11
ENDBRANCH   9  10
ENDBRANCH   7   8
ENDBRANCH   6   7
ENDBRANCH   5   6
ENDBRANCH   3   5
ENDBRANCH   1   3
TORSDOF 15
ENDMDL
MODEL 16
REMARK VINA RESULT:      -4.6     26.389     28.517
REMARK  15 active torsions:
REMARK  status: ('A' for Active; 'I' for Inactive)
REMARK    1  A    between atoms: O_1  and  C_22 
REMARK    2  A    between atoms: C_3  and  C_4 
REMARK    3  A    between atoms: C_3  and  C_5 
REMARK    4  A    between atoms: C_4  and  C_6 
REMARK    5  A    between atoms: C_5  and  C_7 
REMARK    6  A    between atoms: C_9  and  C_10 
REMARK    7  A    between atoms: C_9  and  C_13 
REMARK    8  A    between atoms: C_10  and  C_14 
REMARK    9  A    between atoms: C_11  and  C_12 
REMARK   10  A    between atoms: C_12  and  C_16 
REMARK   11  A    between atoms: C_13  and  C_22 
REMARK   12  A    between atoms: C_15  and  C_17 
REMARK   13  A    between atoms: C_15  and  C_20 
REMARK   14  A    between atoms: C_18  and  C_19 
REMARK   15  A    between atoms: C_18  and  C_21 
ROOT
HETATM    1  O   UNL     1      32.413 -20.502 -19.454  1.00  0.00    -0.776 OA
HETATM    2  H   UNL     1      32.752 -19.866 -18.808  1.00  0.00     0.167 HD
ENDROOT
BRANCH   1   3
HETATM    3  C   UNL     1      31.283 -20.261 -20.151  1.00  0.00     0.139 C 
HETATM    4  O   UNL     1      30.930 -21.032 -21.031  1.00  0.00    -0.650 OA
BRANCH   3   5
HETATM    5  C   UNL     1      30.466 -19.034 -19.851  1.00  0.00     0.110 C 
BRANCH   5   6
HETATM    6  C   UNL     1      29.818 -19.091 -18.460  1.00  0.00     0.014 C 
BRANCH   6   7
HETATM    7  C   UNL     1      30.430 -18.082 -17.481  1.00  0.00     0.027 C 
BRANCH   7   8
HETATM    8  C   UNL     1      31.245 -17.066 -18.241  1.00  0.00    -0.030 C 
HETATM    9  C   UNL     1      31.423 -15.782 -17.876  1.00  0.00    -0.027 C 
BRANCH   9  10
HETATM   10  C   UNL     1      30.861 -15.141 -16.632  1.00  0.00     0.053 C 
BRANCH  10  11
HETATM   11  C   UNL     1      29.418 -14.733 -16.830  1.00  0.00    -0.027 C 
HETATM   12  C   UNL     1      28.450 -14.657 -15.893  1.00  0.00    -0.027 C 
BRANCH  12  13
HETATM   13  C   UNL     1      28.590 -14.943 -14.420  1.00  0.00     0.053 C 
BRANCH  13  14
HETATM   14  C   UNL     1      28.680 -13.649 -13.648  1.00  0.00    -0.027 C 
HETATM   15  C   UNL     1      29.801 -13.168 -13.072  1.00  0.00    -0.027 C 
BRANCH  15  16
HETATM   16  C   UNL     1      31.138 -13.862 -13.097  1.00  0.00     0.053 C 
BRANCH  16  17
HETATM   17  C   UNL     1      31.232 -14.921 -12.027  1.00  0.00    -0.027 C 
HETATM   18  C   UNL     1      31.570 -16.200 -12.265  1.00  0.00    -0.030 C 
BRANCH  18  19
HETATM   19  C   UNL     1      31.892 -16.765 -13.626  1.00  0.00     0.027 C 
BRANCH  19  20
HETATM   20  C   UNL     1      30.907 -17.890 -13.962  1.00  0.00     0.004 C 
BRANCH  20  21
HETATM   21  C   UNL     1      30.333 -18.523 -12.690  1.00  0.00    -0.000 C 
BRANCH  21  22
HETATM   22  C   UNL     1      30.717 -20.004 -12.596  1.00  0.00    -0.005 C 
HETATM   23  C   UNL     1      30.992 -20.412 -11.152  1.00  0.00     0.005 C 
ENDBRANCH  21  22
ENDBRANCH  20  21
ENDBRANCH  19  20
ENDBRANCH  18  19
ENDBRANCH  16  17
ENDBRANCH  15  16
ENDBRANCH  13  14
ENDBRANCH  12  13
ENDBRANCH  10  11
ENDBRANCH   9  10
ENDBRANCH   7   8
ENDBRANCH   6   7
ENDBRANCH   5   6
ENDBRANCH   3   5
ENDBRANCH   1   3
TORSDOF 15
ENDMDL
MODEL 17
REMARK VINA RESULT:      -4.6      3.976      9.071
REMARK  15 active torsions:
REMARK  status: ('A' for Active; 'I' for Inactive)
REMARK    1  A    between atoms: O_1  and  C_22 
REMARK    2  A    between atoms: C_3  and  C_4 
REMARK    3  A    between atoms: C_3  and  C_5 
REMARK    4  A    between atoms: C_4  and  C_6 
REMARK    5  A    between atoms: C_5  and  C_7 
REMARK    6  A    between atoms: C_9  and  C_10 
REMARK    7  A    between atoms: C_9  and  C_13 
REMARK    8  A    between atoms: C_10  and  C_14 
REMARK    9  A    between atoms: C_11  and  C_12 
REMARK   10  A    between atoms: C_12  and  C_16 
REMARK   11  A    between atoms: C_13  and  C_22 
REMARK   12  A    between atoms: C_15  and  C_17 
REMARK   13  A    between atoms: C_15  and  C_20 
REMARK   14  A    between atoms: C_18  and  C_19 
REMARK   15  A    between atoms: C_18  and  C_21 
ROOT
HETATM    1  O   UNL     1      39.592   6.784 -17.493  1.00  0.00    -0.776 OA
HETATM    2  H   UNL     1      38.965   6.109 -17.790  1.00  0.00     0.167 HD
ENDROOT
BRANCH   1   3
HETATM    3  C   UNL     1      39.919   7.833 -18.278  1.00  0.00     0.139 C 
HETATM    4  O   UNL     1      39.758   7.766 -19.488  1.00  0.00    -0.650 OA
BRANCH   3   5
HETATM    5  C   UNL     1      40.493   9.078 -17.660  1.00  0.00     0.110 C 
BRANCH   5   6
HETATM    6  C   UNL     1      40.574   8.987 -16.129  1.00  0.00     0.014 C 
BRANCH   6   7
HETATM    7  C   UNL     1      40.971  10.317 -15.478  1.00  0.00     0.027 C 
BRANCH   7   8
HETATM    8  C   UNL     1      41.754  10.051 -14.216  1.00  0.00    -0.030 C 
HETATM    9  C   UNL     1      41.231   9.603 -13.059  1.00  0.00    -0.027 C 
BRANCH   9  10
HETATM   10  C   UNL     1      39.780   9.266 -12.827  1.00  0.00     0.053 C 
BRANCH  10  11
HETATM   11  C   UNL     1      39.573   7.771 -12.730  1.00  0.00    -0.027 C 
HETATM   12  C   UNL     1      39.228   7.060 -11.637  1.00  0.00    -0.027 C 
BRANCH  12  13
HETATM   13  C   UNL     1      38.947   7.596 -10.256  1.00  0.00     0.053 C 
BRANCH  13  14
HETATM   14  C   UNL     1      40.183   7.479  -9.395  1.00  0.00    -0.027 C 
HETATM   15  C   UNL     1      40.845   8.517  -8.846  1.00  0.00    -0.027 C 
BRANCH  15  16
HETATM   16  C   UNL     1      40.462   9.963  -9.022  1.00  0.00     0.053 C 
BRANCH  16  17
HETATM   17  C   UNL     1      40.946  10.808  -7.870  1.00  0.00    -0.027 C 
HETATM   18  C   UNL     1      40.193  11.121  -6.801  1.00  0.00    -0.030 C 
BRANCH  18  19
HETATM   19  C   UNL     1      38.762  10.690  -6.601  1.00  0.00     0.027 C 
BRANCH  19  20
HETATM   20  C   UNL     1      38.513  10.408  -5.116  1.00  0.00     0.004 C 
BRANCH  20  21
HETATM   21  C   UNL     1      37.891   9.023  -4.910  1.00  0.00    -0.000 C 
BRANCH  21  22
HETATM   22  C   UNL     1      38.160   8.119  -6.119  1.00  0.00    -0.005 C 
HETATM   23  C   UNL     1      39.187   7.041  -5.784  1.00  0.00     0.005 C 
ENDBRANCH  21  22
ENDBRANCH  20  21
ENDBRANCH  19  20
ENDBRANCH  18  19
ENDBRANCH  16  17
ENDBRANCH  15  16
ENDBRANCH  13  14
ENDBRANCH  12  13
ENDBRANCH  10  11
ENDBRANCH   9  10
ENDBRANCH   7   8
ENDBRANCH   6   7
ENDBRANCH   5   6
ENDBRANCH   3   5
ENDBRANCH   1   3
TORSDOF 15
ENDMDL
MODEL 18
REMARK VINA RESULT:      -4.6     24.707     26.337
REMARK  15 active torsions:
REMARK  status: ('A' for Active; 'I' for Inactive)
REMARK    1  A    between atoms: O_1  and  C_22 
REMARK    2  A    between atoms: C_3  and  C_4 
REMARK    3  A    between atoms: C_3  and  C_5 
REMARK    4  A    between atoms: C_4  and  C_6 
REMARK    5  A    between atoms: C_5  and  C_7 
REMARK    6  A    between atoms: C_9  and  C_10 
REMARK    7  A    between atoms: C_9  and  C_13 
REMARK    8  A    between atoms: C_10  and  C_14 
REMARK    9  A    between atoms: C_11  and  C_12 
REMARK   10  A    between atoms: C_12  and  C_16 
REMARK   11  A    between atoms: C_13  and  C_22 
REMARK   12  A    between atoms: C_15  and  C_17 
REMARK   13  A    between atoms: C_15  and  C_20 
REMARK   14  A    between atoms: C_18  and  C_19 
REMARK   15  A    between atoms: C_18  and  C_21 
ROOT
HETATM    1  O   UNL     1      29.820 -21.093 -13.866  1.00  0.00    -0.776 OA
HETATM    2  H   UNL     1      28.944 -20.774 -13.604  1.00  0.00     0.167 HD
ENDROOT
BRANCH   1   3
HETATM    3  C   UNL     1      30.627 -20.358 -14.660  1.00  0.00     0.139 C 
HETATM    4  O   UNL     1      31.210 -20.885 -15.596  1.00  0.00    -0.650 OA
BRANCH   3   5
HETATM    5  C   UNL     1      30.815 -18.892 -14.382  1.00  0.00     0.110 C 
BRANCH   5   6
HETATM    6  C   UNL     1      30.258 -18.481 -13.012  1.00  0.00     0.014 C 
BRANCH   6   7
HETATM    7  C   UNL     1      30.132 -16.960 -12.856  1.00  0.00     0.027 C 
BRANCH   7   8
HETATM    8  C   UNL     1      30.990 -16.494 -11.707  1.00  0.00    -0.030 C 
HETATM    9  C   UNL     1      30.540 -15.846 -10.615  1.00  0.00    -0.027 C 
BRANCH   9  10
HETATM   10  C   UNL     1      29.100 -15.495 -10.338  1.00  0.00     0.053 C 
BRANCH  10  11
HETATM   11  C   UNL     1      28.983 -14.550  -9.163  1.00  0.00    -0.027 C 
HETATM   12  C   UNL     1      28.900 -13.204  -9.198  1.00  0.00    -0.027 C 
BRANCH  12  13
HETATM   13  C   UNL     1      28.884 -12.328 -10.425  1.00  0.00     0.053 C 
BRANCH  13  14
HETATM   14  C   UNL     1      30.297 -12.066 -10.892  1.00  0.00    -0.027 C 
HETATM   15  C   UNL     1      30.789 -12.412 -12.099  1.00  0.00    -0.027 C 
BRANCH  15  16
HETATM   16  C   UNL     1      30.006 -13.131 -13.166  1.00  0.00     0.053 C 
BRANCH  16  17
HETATM   17  C   UNL     1      29.357 -12.162 -14.122  1.00  0.00    -0.027 C 
HETATM   18  C   UNL     1      29.942 -11.712 -15.246  1.00  0.00    -0.030 C 
BRANCH  18  19
HETATM   19  C   UNL     1      31.325 -12.095 -15.708  1.00  0.00     0.027 C 
BRANCH  19  20
HETATM   20  C   UNL     1      31.233 -13.267 -16.691  1.00  0.00     0.004 C 
BRANCH  20  21
HETATM   21  C   UNL     1      31.775 -14.558 -16.069  1.00  0.00    -0.000 C 
BRANCH  21  22
HETATM   22  C   UNL     1      30.875 -15.750 -16.412  1.00  0.00    -0.005 C 
HETATM   23  C   UNL     1      29.408 -15.431 -16.137  1.00  0.00     0.005 C 
ENDBRANCH  21  22
ENDBRANCH  20  21
ENDBRANCH  19  20
ENDBRANCH  18  19
ENDBRANCH  16  17
ENDBRANCH  15  16
ENDBRANCH  13  14
ENDBRANCH  12  13
ENDBRANCH  10  11
ENDBRANCH   9  10
ENDBRANCH   7   8
ENDBRANCH   6   7
ENDBRANCH   5   6
ENDBRANCH   3   5
ENDBRANCH   1   3
TORSDOF 15
ENDMDL
MODEL 19
REMARK VINA RESULT:      -4.6     24.452     26.342
REMARK  15 active torsions:
REMARK  status: ('A' for Active; 'I' for Inactive)
REMARK    1  A    between atoms: O_1  and  C_22 
REMARK    2  A    between atoms: C_3  and  C_4 
REMARK    3  A    between atoms: C_3  and  C_5 
REMARK    4  A    between atoms: C_4  and  C_6 
REMARK    5  A    between atoms: C_5  and  C_7 
REMARK    6  A    between atoms: C_9  and  C_10 
REMARK    7  A    between atoms: C_9  and  C_13 
REMARK    8  A    between atoms: C_10  and  C_14 
REMARK    9  A    between atoms: C_11  and  C_12 
REMARK   10  A    between atoms: C_12  and  C_16 
REMARK   11  A    between atoms: C_13  and  C_22 
REMARK   12  A    between atoms: C_15  and  C_17 
REMARK   13  A    between atoms: C_15  and  C_20 
REMARK   14  A    between atoms: C_18  and  C_19 
REMARK   15  A    between atoms: C_18  and  C_21 
ROOT
HETATM    1  O   UNL     1      29.860 -21.022 -13.882  1.00  0.00    -0.776 OA
HETATM    2  H   UNL     1      29.058 -21.357 -14.308  1.00  0.00     0.167 HD
ENDROOT
BRANCH   1   3
HETATM    3  C   UNL     1      30.833 -20.415 -14.594  1.00  0.00     0.139 C 
HETATM    4  O   UNL     1      31.136 -20.837 -15.701  1.00  0.00    -0.650 OA
BRANCH   3   5
HETATM    5  C   UNL     1      31.551 -19.227 -14.016  1.00  0.00     0.110 C 
BRANCH   5   6
HETATM    6  C   UNL     1      30.589 -18.096 -13.626  1.00  0.00     0.014 C 
BRANCH   6   7
HETATM    7  C   UNL     1      29.912 -17.449 -14.842  1.00  0.00     0.027 C 
BRANCH   7   8
HETATM    8  C   UNL     1      30.855 -16.463 -15.484  1.00  0.00    -0.030 C 
HETATM    9  C   UNL     1      30.511 -15.244 -15.941  1.00  0.00    -0.027 C 
BRANCH   9  10
HETATM   10  C   UNL     1      29.131 -14.641 -15.869  1.00  0.00     0.053 C 
BRANCH  10  11
HETATM   11  C   UNL     1      29.132 -13.368 -15.051  1.00  0.00    -0.027 C 
HETATM   12  C   UNL     1      28.828 -13.232 -13.744  1.00  0.00    -0.027 C 
BRANCH  12  13
HETATM   13  C   UNL     1      28.435 -14.328 -12.785  1.00  0.00     0.053 C 
BRANCH  13  14
HETATM   14  C   UNL     1      27.250 -13.889 -11.957  1.00  0.00    -0.027 C 
HETATM   15  C   UNL     1      27.322 -13.404 -10.701  1.00  0.00    -0.027 C 
BRANCH  15  16
HETATM   16  C   UNL     1      28.600 -13.240  -9.921  1.00  0.00     0.053 C 
BRANCH  16  17
HETATM   17  C   UNL     1      29.159 -11.846 -10.063  1.00  0.00    -0.027 C 
HETATM   18  C   UNL     1      30.391 -11.576 -10.529  1.00  0.00    -0.030 C 
BRANCH  18  19
HETATM   19  C   UNL     1      31.393 -12.616 -10.964  1.00  0.00     0.027 C 
BRANCH  19  20
HETATM   20  C   UNL     1      32.169 -12.104 -12.182  1.00  0.00     0.004 C 
BRANCH  20  21
HETATM   21  C   UNL     1      32.433 -13.232 -13.186  1.00  0.00    -0.000 C 
BRANCH  21  22
HETATM   22  C   UNL     1      32.732 -12.665 -14.579  1.00  0.00    -0.005 C 
HETATM   23  C   UNL     1      32.218 -11.235 -14.713  1.00  0.00     0.005 C 
ENDBRANCH  21  22
ENDBRANCH  20  21
ENDBRANCH  19  20
ENDBRANCH  18  19
ENDBRANCH  16  17
ENDBRANCH  15  16
ENDBRANCH  13  14
ENDBRANCH  12  13
ENDBRANCH  10  11
ENDBRANCH   9  10
ENDBRANCH   7   8
ENDBRANCH   6   7
ENDBRANCH   5   6
ENDBRANCH   3   5
ENDBRANCH   1   3
TORSDOF 15
ENDMDL
MODEL 20
REMARK VINA RESULT:      -4.6     23.955     25.820
REMARK  15 active torsions:
REMARK  status: ('A' for Active; 'I' for Inactive)
REMARK    1  A    between atoms: O_1  and  C_22 
REMARK    2  A    between atoms: C_3  and  C_4 
REMARK    3  A    between atoms: C_3  and  C_5 
REMARK    4  A    between atoms: C_4  and  C_6 
REMARK    5  A    between atoms: C_5  and  C_7 
REMARK    6  A    between atoms: C_9  and  C_10 
REMARK    7  A    between atoms: C_9  and  C_13 
REMARK    8  A    between atoms: C_10  and  C_14 
REMARK    9  A    between atoms: C_11  and  C_12 
REMARK   10  A    between atoms: C_12  and  C_16 
REMARK   11  A    between atoms: C_13  and  C_22 
REMARK   12  A    between atoms: C_15  and  C_17 
REMARK   13  A    between atoms: C_15  and  C_20 
REMARK   14  A    between atoms: C_18  and  C_19 
REMARK   15  A    between atoms: C_18  and  C_21 
ROOT
HETATM    1  O   UNL     1      32.465 -20.297  -9.383  1.00  0.00    -0.776 OA
HETATM    2  H   UNL     1      33.281 -20.476  -9.872  1.00  0.00     0.167 HD
ENDROOT
BRANCH   1   3
HETATM    3  C   UNL     1      31.276 -20.194 -10.014  1.00  0.00     0.139 C 
HETATM    4  O   UNL     1      30.935 -21.045 -10.823  1.00  0.00    -0.650 OA
BRANCH   3   5
HETATM    5  C   UNL     1      30.378 -19.022  -9.728  1.00  0.00     0.110 C 
BRANCH   5   6
HETATM    6  C   UNL     1      30.607 -17.858 -10.703  1.00  0.00     0.014 C 
BRANCH   6   7
HETATM    7  C   UNL     1      30.963 -16.549  -9.988  1.00  0.00     0.027 C 
BRANCH   7   8
HETATM    8  C   UNL     1      31.084 -16.796  -8.506  1.00  0.00    -0.030 C 
HETATM    9  C   UNL     1      31.670 -15.963  -7.625  1.00  0.00    -0.027 C 
BRANCH   9  10
HETATM   10  C   UNL     1      32.285 -14.628  -7.960  1.00  0.00     0.053 C 
BRANCH  10  11
HETATM   11  C   UNL     1      32.917 -13.994  -6.741  1.00  0.00    -0.027 C 
HETATM   12  C   UNL     1      33.107 -12.679  -6.505  1.00  0.00    -0.027 C 
BRANCH  12  13
HETATM   13  C   UNL     1      32.714 -11.531  -7.399  1.00  0.00     0.053 C 
BRANCH  13  14
HETATM   14  C   UNL     1      33.809 -11.258  -8.402  1.00  0.00    -0.027 C 
HETATM   15  C   UNL     1      33.610 -10.926  -9.694  1.00  0.00    -0.027 C 
BRANCH  15  16
HETATM   16  C   UNL     1      32.257 -10.792 -10.342  1.00  0.00     0.053 C 
BRANCH  16  17
HETATM   17  C   UNL     1      31.819 -12.087 -10.980  1.00  0.00    -0.027 C 
HETATM   18  C   UNL     1      30.724 -12.773 -10.609  1.00  0.00    -0.030 C 
BRANCH  18  19
HETATM   19  C   UNL     1      29.785 -12.362  -9.503  1.00  0.00     0.027 C 
BRANCH  19  20
HETATM   20  C   UNL     1      28.894 -13.547  -9.117  1.00  0.00     0.004 C 
BRANCH  20  21
HETATM   21  C   UNL     1      28.543 -13.514  -7.625  1.00  0.00    -0.000 C 
BRANCH  21  22
HETATM   22  C   UNL     1      29.421 -12.503  -6.879  1.00  0.00    -0.005 C 
HETATM   23  C   UNL     1      28.775 -12.076  -5.565  1.00  0.00     0.005 C 
ENDBRANCH  21  22
ENDBRANCH  20  21
ENDBRANCH  19  20
ENDBRANCH  18  19
ENDBRANCH  16  17
ENDBRANCH  15  16
ENDBRANCH  13  14
ENDBRANCH  12  13
ENDBRANCH  10  11
ENDBRANCH   9  10
ENDBRANCH   7   8
ENDBRANCH   6   7
ENDBRANCH   5   6
ENDBRANCH   3   5
ENDBRANCH   1   3
TORSDOF 15
ENDMDL
