MODEL 1
REMARK VINA RESULT:      -5.7      0.000      0.000
REMARK  15 active torsions:
REMARK  status: ('A' for Active; 'I' for Inactive)
REMARK    1  A    between atoms: O_1  and  C_22 
REMARK    2  A    between atoms: C_3  and  C_4 
REMARK    3  A    between atoms: C_3  and  C_5 
REMARK    4  A    between atoms: C_4  and  C_6 
REMARK    5  A    between atoms: C_5  and  C_7 
REMARK    6  A    between atoms: C_9  and  C_10 
REMARK    7  A    between atoms: C_9  and  C_13 
REMARK    8  A    between atoms: C_10  and  C_14 
REMARK    9  A    between atoms: C_11  and  C_12 
REMARK   10  A    between atoms: C_12  and  C_16 
REMARK   11  A    between atoms: C_13  and  C_22 
REMARK   12  A    between atoms: C_15  and  C_17 
REMARK   13  A    between atoms: C_15  and  C_20 
REMARK   14  A    between atoms: C_18  and  C_19 
REMARK   15  A    between atoms: C_18  and  C_21 
ROOT
HETATM    1  O   UNL     1      55.015  -7.419 -19.932  1.00  0.00    -0.776 OA
HETATM    2  H   UNL     1      54.895  -6.489 -20.170  1.00  0.00     0.167 HD
ENDROOT
BRANCH   1   3
HETATM    3  C   UNL     1      53.958  -8.235 -19.733  1.00  0.00     0.139 C 
HETATM    4  O   UNL     1      53.383  -8.736 -20.689  1.00  0.00    -0.650 OA
BRANCH   3   5
HETATM    5  C   UNL     1      53.484  -8.516 -18.334  1.00  0.00     0.110 C 
BRANCH   5   6
HETATM    6  C   UNL     1      54.025  -7.500 -17.319  1.00  0.00     0.014 C 
BRANCH   6   7
HETATM    7  C   UNL     1      53.184  -7.440 -16.037  1.00  0.00     0.027 C 
BRANCH   7   8
HETATM    8  C   UNL     1      53.993  -7.957 -14.874  1.00  0.00    -0.030 C 
HETATM    9  C   UNL     1      53.532  -8.122 -13.620  1.00  0.00    -0.027 C 
BRANCH   9  10
HETATM   10  C   UNL     1      52.122  -7.842 -13.162  1.00  0.00     0.053 C 
BRANCH  10  11
HETATM   11  C   UNL     1      52.107  -7.220 -11.784  1.00  0.00    -0.027 C 
HETATM   12  C   UNL     1      51.205  -6.350 -11.286  1.00  0.00    -0.027 C 
BRANCH  12  13
HETATM   13  C   UNL     1      49.985  -5.808 -11.987  1.00  0.00     0.053 C 
BRANCH  13  14
HETATM   14  C   UNL     1      48.764  -6.603 -11.589  1.00  0.00    -0.027 C 
HETATM   15  C   UNL     1      48.220  -7.600 -12.316  1.00  0.00    -0.027 C 
BRANCH  15  16
HETATM   16  C   UNL     1      48.739  -8.065 -13.651  1.00  0.00     0.053 C 
BRANCH  16  17
HETATM   17  C   UNL     1      47.890  -7.548 -14.785  1.00  0.00    -0.027 C 
HETATM   18  C   UNL     1      48.236  -6.513 -15.571  1.00  0.00    -0.030 C 
BRANCH  18  19
HETATM   19  C   UNL     1      49.508  -5.715 -15.430  1.00  0.00     0.027 C 
BRANCH  19  20
HETATM   20  C   UNL     1      50.124  -5.480 -16.813  1.00  0.00     0.004 C 
BRANCH  20  21
HETATM   21  C   UNL     1      49.997  -6.727 -17.696  1.00  0.00    -0.000 C 
BRANCH  21  22
HETATM   22  C   UNL     1      49.346  -6.381 -19.040  1.00  0.00    -0.005 C 
HETATM   23  C   UNL     1      50.321  -6.588 -20.194  1.00  0.00     0.005 C 
ENDBRANCH  21  22
ENDBRANCH  20  21
ENDBRANCH  19  20
ENDBRANCH  18  19
ENDBRANCH  16  17
ENDBRANCH  15  16
ENDBRANCH  13  14
ENDBRANCH  12  13
ENDBRANCH  10  11
ENDBRANCH   9  10
ENDBRANCH   7   8
ENDBRANCH   6   7
ENDBRANCH   5   6
ENDBRANCH   3   5
ENDBRANCH   1   3
TORSDOF 15
ENDMDL
MODEL 2
REMARK VINA RESULT:      -5.4      6.113      8.766
REMARK  15 active torsions:
REMARK  status: ('A' for Active; 'I' for Inactive)
REMARK    1  A    between atoms: O_1  and  C_22 
REMARK    2  A    between atoms: C_3  and  C_4 
REMARK    3  A    between atoms: C_3  and  C_5 
REMARK    4  A    between atoms: C_4  and  C_6 
REMARK    5  A    between atoms: C_5  and  C_7 
REMARK    6  A    between atoms: C_9  and  C_10 
REMARK    7  A    between atoms: C_9  and  C_13 
REMARK    8  A    between atoms: C_10  and  C_14 
REMARK    9  A    between atoms: C_11  and  C_12 
REMARK   10  A    between atoms: C_12  and  C_16 
REMARK   11  A    between atoms: C_13  and  C_22 
REMARK   12  A    between atoms: C_15  and  C_17 
REMARK   13  A    between atoms: C_15  and  C_20 
REMARK   14  A    between atoms: C_18  and  C_19 
REMARK   15  A    between atoms: C_18  and  C_21 
ROOT
HETATM    1  O   UNL     1      54.967  -7.545  -9.802  1.00  0.00    -0.776 OA
HETATM    2  H   UNL     1      55.681  -7.641 -10.449  1.00  0.00     0.167 HD
ENDROOT
BRANCH   1   3
HETATM    3  C   UNL     1      53.746  -8.079 -10.019  1.00  0.00     0.139 C 
HETATM    4  O   UNL     1      53.442  -8.480 -11.133  1.00  0.00    -0.650 OA
BRANCH   3   5
HETATM    5  C   UNL     1      52.758  -8.168  -8.889  1.00  0.00     0.110 C 
BRANCH   5   6
HETATM    6  C   UNL     1      53.430  -8.506  -7.551  1.00  0.00     0.014 C 
BRANCH   6   7
HETATM    7  C   UNL     1      53.503  -7.301  -6.604  1.00  0.00     0.027 C 
BRANCH   7   8
HETATM    8  C   UNL     1      53.682  -7.780  -5.185  1.00  0.00    -0.030 C 
HETATM    9  C   UNL     1      52.687  -7.969  -4.298  1.00  0.00    -0.027 C 
BRANCH   9  10
HETATM   10  C   UNL     1      51.219  -7.760  -4.573  1.00  0.00     0.053 C 
BRANCH  10  11
HETATM   11  C   UNL     1      50.551  -7.009  -3.442  1.00  0.00    -0.027 C 
HETATM   12  C   UNL     1      49.262  -7.090  -3.053  1.00  0.00    -0.027 C 
BRANCH  12  13
HETATM   13  C   UNL     1      48.188  -7.966  -3.645  1.00  0.00     0.053 C 
BRANCH  13  14
HETATM   14  C   UNL     1      46.902  -7.187  -3.782  1.00  0.00    -0.027 C 
HETATM   15  C   UNL     1      46.516  -6.519  -4.889  1.00  0.00    -0.027 C 
BRANCH  15  16
HETATM   16  C   UNL     1      47.321  -6.435  -6.159  1.00  0.00     0.053 C 
BRANCH  16  17
HETATM   17  C   UNL     1      48.320  -5.306  -6.106  1.00  0.00    -0.027 C 
HETATM   18  C   UNL     1      49.421  -5.243  -6.875  1.00  0.00    -0.030 C 
BRANCH  18  19
HETATM   19  C   UNL     1      49.826  -6.286  -7.885  1.00  0.00     0.027 C 
BRANCH  19  20
HETATM   20  C   UNL     1      49.221  -5.942  -9.250  1.00  0.00     0.004 C 
BRANCH  20  21
HETATM   21  C   UNL     1      50.108  -6.447 -10.393  1.00  0.00    -0.000 C 
BRANCH  21  22
HETATM   22  C   UNL     1      50.160  -5.427 -11.537  1.00  0.00    -0.005 C 
HETATM   23  C   UNL     1      48.818  -4.722 -11.707  1.00  0.00     0.005 C 
ENDBRANCH  21  22
ENDBRANCH  20  21
ENDBRANCH  19  20
ENDBRANCH  18  19
ENDBRANCH  16  17
ENDBRANCH  15  16
ENDBRANCH  13  14
ENDBRANCH  12  13
ENDBRANCH  10  11
ENDBRANCH   9  10
ENDBRANCH   7   8
ENDBRANCH   6   7
ENDBRANCH   5   6
ENDBRANCH   3   5
ENDBRANCH   1   3
TORSDOF 15
ENDMDL
MODEL 3
REMARK VINA RESULT:      -5.3      2.757      4.160
REMARK  15 active torsions:
REMARK  status: ('A' for Active; 'I' for Inactive)
REMARK    1  A    between atoms: O_1  and  C_22 
REMARK    2  A    between atoms: C_3  and  C_4 
REMARK    3  A    between atoms: C_3  and  C_5 
REMARK    4  A    between atoms: C_4  and  C_6 
REMARK    5  A    between atoms: C_5  and  C_7 
REMARK    6  A    between atoms: C_9  and  C_10 
REMARK    7  A    between atoms: C_9  and  C_13 
REMARK    8  A    between atoms: C_10  and  C_14 
REMARK    9  A    between atoms: C_11  and  C_12 
REMARK   10  A    between atoms: C_12  and  C_16 
REMARK   11  A    between atoms: C_13  and  C_22 
REMARK   12  A    between atoms: C_15  and  C_17 
REMARK   13  A    between atoms: C_15  and  C_20 
REMARK   14  A    between atoms: C_18  and  C_19 
REMARK   15  A    between atoms: C_18  and  C_21 
ROOT
HETATM    1  O   UNL     1      52.498  -9.280 -13.601  1.00  0.00    -0.776 OA
HETATM    2  H   UNL     1      51.705  -9.049 -14.104  1.00  0.00     0.167 HD
ENDROOT
BRANCH   1   3
HETATM    3  C   UNL     1      53.588  -8.482 -13.601  1.00  0.00     0.139 C 
HETATM    4  O   UNL     1      54.442  -8.611 -14.466  1.00  0.00    -0.650 OA
BRANCH   3   5
HETATM    5  C   UNL     1      53.753  -7.443 -12.526  1.00  0.00     0.110 C 
BRANCH   5   6
HETATM    6  C   UNL     1      53.532  -8.017 -11.120  1.00  0.00     0.014 C 
BRANCH   6   7
HETATM    7  C   UNL     1      52.268  -7.464 -10.447  1.00  0.00     0.027 C 
BRANCH   7   8
HETATM    8  C   UNL     1      51.531  -6.567 -11.410  1.00  0.00    -0.030 C 
HETATM    9  C   UNL     1      50.362  -5.950 -11.157  1.00  0.00    -0.027 C 
BRANCH   9  10
HETATM   10  C   UNL     1      49.596  -6.026  -9.860  1.00  0.00     0.053 C 
BRANCH  10  11
HETATM   11  C   UNL     1      48.598  -7.162  -9.879  1.00  0.00    -0.027 C 
HETATM   12  C   UNL     1      47.471  -7.252 -10.614  1.00  0.00    -0.027 C 
BRANCH  12  13
HETATM   13  C   UNL     1      46.953  -6.243 -11.607  1.00  0.00     0.053 C 
BRANCH  13  14
HETATM   14  C   UNL     1      46.615  -6.927 -12.911  1.00  0.00    -0.027 C 
HETATM   15  C   UNL     1      47.352  -6.850 -14.038  1.00  0.00    -0.027 C 
BRANCH  15  16
HETATM   16  C   UNL     1      48.622  -6.052 -14.175  1.00  0.00     0.053 C 
BRANCH  16  17
HETATM   17  C   UNL     1      49.704  -6.849 -14.860  1.00  0.00    -0.027 C 
HETATM   18  C   UNL     1      50.412  -6.403 -15.913  1.00  0.00    -0.030 C 
BRANCH  18  19
HETATM   19  C   UNL     1      50.223  -5.059 -16.569  1.00  0.00     0.027 C 
BRANCH  19  20
HETATM   20  C   UNL     1      49.121  -5.154 -17.629  1.00  0.00     0.004 C 
BRANCH  20  21
HETATM   21  C   UNL     1      49.333  -6.366 -18.543  1.00  0.00    -0.000 C 
BRANCH  21  22
HETATM   22  C   UNL     1      48.042  -7.181 -18.677  1.00  0.00    -0.005 C 
HETATM   23  C   UNL     1      48.146  -8.506 -17.929  1.00  0.00     0.005 C 
ENDBRANCH  21  22
ENDBRANCH  20  21
ENDBRANCH  19  20
ENDBRANCH  18  19
ENDBRANCH  16  17
ENDBRANCH  15  16
ENDBRANCH  13  14
ENDBRANCH  12  13
ENDBRANCH  10  11
ENDBRANCH   9  10
ENDBRANCH   7   8
ENDBRANCH   6   7
ENDBRANCH   5   6
ENDBRANCH   3   5
ENDBRANCH   1   3
TORSDOF 15
ENDMDL
MODEL 4
REMARK VINA RESULT:      -5.0      2.260      3.642
REMARK  15 active torsions:
REMARK  status: ('A' for Active; 'I' for Inactive)
REMARK    1  A    between atoms: O_1  and  C_22 
REMARK    2  A    between atoms: C_3  and  C_4 
REMARK    3  A    between atoms: C_3  and  C_5 
REMARK    4  A    between atoms: C_4  and  C_6 
REMARK    5  A    between atoms: C_5  and  C_7 
REMARK    6  A    between atoms: C_9  and  C_10 
REMARK    7  A    between atoms: C_9  and  C_13 
REMARK    8  A    between atoms: C_10  and  C_14 
REMARK    9  A    between atoms: C_11  and  C_12 
REMARK   10  A    between atoms: C_12  and  C_16 
REMARK   11  A    between atoms: C_13  and  C_22 
REMARK   12  A    between atoms: C_15  and  C_17 
REMARK   13  A    between atoms: C_15  and  C_20 
REMARK   14  A    between atoms: C_18  and  C_19 
REMARK   15  A    between atoms: C_18  and  C_21 
ROOT
HETATM    1  O   UNL     1      54.806  -7.239 -14.926  1.00  0.00    -0.776 OA
HETATM    2  H   UNL     1      54.643  -6.310 -14.713  1.00  0.00     0.167 HD
ENDROOT
BRANCH   1   3
HETATM    3  C   UNL     1      53.822  -8.160 -14.856  1.00  0.00     0.139 C 
HETATM    4  O   UNL     1      53.383  -8.666 -15.879  1.00  0.00    -0.650 OA
BRANCH   3   5
HETATM    5  C   UNL     1      53.260  -8.554 -13.518  1.00  0.00     0.110 C 
BRANCH   5   6
HETATM    6  C   UNL     1      53.885  -7.756 -12.365  1.00  0.00     0.014 C 
BRANCH   6   7
HETATM    7  C   UNL     1      52.832  -7.113 -11.452  1.00  0.00     0.027 C 
BRANCH   7   8
HETATM    8  C   UNL     1      52.768  -7.862 -10.145  1.00  0.00    -0.030 C 
HETATM    9  C   UNL     1      51.763  -7.781  -9.252  1.00  0.00    -0.027 C 
BRANCH   9  10
HETATM   10  C   UNL     1      50.517  -6.948  -9.411  1.00  0.00     0.053 C 
BRANCH  10  11
HETATM   11  C   UNL     1      49.616  -7.072  -8.203  1.00  0.00    -0.027 C 
HETATM   12  C   UNL     1      48.296  -7.351  -8.188  1.00  0.00    -0.027 C 
BRANCH  12  13
HETATM   13  C   UNL     1      47.413  -7.624  -9.379  1.00  0.00     0.053 C 
BRANCH  13  14
HETATM   14  C   UNL     1      47.115  -6.336 -10.108  1.00  0.00    -0.027 C 
HETATM   15  C   UNL     1      47.249  -6.150 -11.437  1.00  0.00    -0.027 C 
BRANCH  15  16
HETATM   16  C   UNL     1      47.737  -7.200 -12.401  1.00  0.00     0.053 C 
BRANCH  16  17
HETATM   17  C   UNL     1      49.211  -7.050 -12.683  1.00  0.00    -0.027 C 
HETATM   18  C   UNL     1      49.710  -6.588 -13.843  1.00  0.00    -0.030 C 
BRANCH  18  19
HETATM   19  C   UNL     1      48.879  -6.166 -15.028  1.00  0.00     0.027 C 
BRANCH  19  20
HETATM   20  C   UNL     1      49.800  -5.813 -16.201  1.00  0.00     0.004 C 
BRANCH  20  21
HETATM   21  C   UNL     1      48.996  -5.307 -17.404  1.00  0.00    -0.000 C 
BRANCH  21  22
HETATM   22  C   UNL     1      49.513  -5.928 -18.707  1.00  0.00    -0.005 C 
HETATM   23  C   UNL     1      49.929  -7.381 -18.497  1.00  0.00     0.005 C 
ENDBRANCH  21  22
ENDBRANCH  20  21
ENDBRANCH  19  20
ENDBRANCH  18  19
ENDBRANCH  16  17
ENDBRANCH  15  16
ENDBRANCH  13  14
ENDBRANCH  12  13
ENDBRANCH  10  11
ENDBRANCH   9  10
ENDBRANCH   7   8
ENDBRANCH   6   7
ENDBRANCH   5   6
ENDBRANCH   3   5
ENDBRANCH   1   3
TORSDOF 15
ENDMDL
MODEL 5
REMARK VINA RESULT:      -4.9      2.739      6.046
REMARK  15 active torsions:
REMARK  status: ('A' for Active; 'I' for Inactive)
REMARK    1  A    between atoms: O_1  and  C_22 
REMARK    2  A    between atoms: C_3  and  C_4 
REMARK    3  A    between atoms: C_3  and  C_5 
REMARK    4  A    between atoms: C_4  and  C_6 
REMARK    5  A    between atoms: C_5  and  C_7 
REMARK    6  A    between atoms: C_9  and  C_10 
REMARK    7  A    between atoms: C_9  and  C_13 
REMARK    8  A    between atoms: C_10  and  C_14 
REMARK    9  A    between atoms: C_11  and  C_12 
REMARK   10  A    between atoms: C_12  and  C_16 
REMARK   11  A    between atoms: C_13  and  C_22 
REMARK   12  A    between atoms: C_15  and  C_17 
REMARK   13  A    between atoms: C_15  and  C_20 
REMARK   14  A    between atoms: C_18  and  C_19 
REMARK   15  A    between atoms: C_18  and  C_21 
ROOT
HETATM    1  O   UNL     1      52.917  -8.113 -11.383  1.00  0.00    -0.776 OA
HETATM    2  H   UNL     1      52.031  -8.496 -11.331  1.00  0.00     0.167 HD
ENDROOT
BRANCH   1   3
HETATM    3  C   UNL     1      53.516  -7.886 -12.572  1.00  0.00     0.139 C 
HETATM    4  O   UNL     1      54.582  -7.291 -12.617  1.00  0.00    -0.650 OA
BRANCH   3   5
HETATM    5  C   UNL     1      52.860  -8.357 -13.841  1.00  0.00     0.110 C 
BRANCH   5   6
HETATM    6  C   UNL     1      53.795  -8.254 -15.054  1.00  0.00     0.014 C 
BRANCH   6   7
HETATM    7  C   UNL     1      53.329  -7.206 -16.073  1.00  0.00     0.027 C 
BRANCH   7   8
HETATM    8  C   UNL     1      53.834  -7.572 -17.446  1.00  0.00    -0.030 C 
HETATM    9  C   UNL     1      53.071  -8.018 -18.461  1.00  0.00    -0.027 C 
BRANCH   9  10
HETATM   10  C   UNL     1      51.575  -8.207 -18.413  1.00  0.00     0.053 C 
BRANCH  10  11
HETATM   11  C   UNL     1      50.867  -7.205 -19.297  1.00  0.00    -0.027 C 
HETATM   12  C   UNL     1      49.538  -7.070 -19.483  1.00  0.00    -0.027 C 
BRANCH  12  13
HETATM   13  C   UNL     1      48.444  -7.877 -18.832  1.00  0.00     0.053 C 
BRANCH  13  14
HETATM   14  C   UNL     1      47.337  -6.964 -18.362  1.00  0.00    -0.027 C 
HETATM   15  C   UNL     1      47.095  -6.640 -17.075  1.00  0.00    -0.027 C 
BRANCH  15  16
HETATM   16  C   UNL     1      47.886  -7.156 -15.902  1.00  0.00     0.053 C 
BRANCH  16  17
HETATM   17  C   UNL     1      49.321  -6.694 -15.956  1.00  0.00    -0.027 C 
HETATM   18  C   UNL     1      49.945  -6.064 -14.946  1.00  0.00    -0.030 C 
BRANCH  18  19
HETATM   19  C   UNL     1      49.307  -5.717 -13.624  1.00  0.00     0.027 C 
BRANCH  19  20
HETATM   20  C   UNL     1      49.893  -6.604 -12.521  1.00  0.00     0.004 C 
BRANCH  20  21
HETATM   21  C   UNL     1      50.144  -5.804 -11.239  1.00  0.00    -0.000 C 
BRANCH  21  22
HETATM   22  C   UNL     1      49.840  -6.651  -9.998  1.00  0.00    -0.005 C 
HETATM   23  C   UNL     1      48.555  -7.452 -10.178  1.00  0.00     0.005 C 
ENDBRANCH  21  22
ENDBRANCH  20  21
ENDBRANCH  19  20
ENDBRANCH  18  19
ENDBRANCH  16  17
ENDBRANCH  15  16
ENDBRANCH  13  14
ENDBRANCH  12  13
ENDBRANCH  10  11
ENDBRANCH   9  10
ENDBRANCH   7   8
ENDBRANCH   6   7
ENDBRANCH   5   6
ENDBRANCH   3   5
ENDBRANCH   1   3
TORSDOF 15
ENDMDL
MODEL 6
REMARK VINA RESULT:      -4.9      2.914      5.749
REMARK  15 active torsions:
REMARK  status: ('A' for Active; 'I' for Inactive)
REMARK    1  A    between atoms: O_1  and  C_22 
REMARK    2  A    between atoms: C_3  and  C_4 
REMARK    3  A    between atoms: C_3  and  C_5 
REMARK    4  A    between atoms: C_4  and  C_6 
REMARK    5  A    between atoms: C_5  and  C_7 
REMARK    6  A    between atoms: C_9  and  C_10 
REMARK    7  A    between atoms: C_9  and  C_13 
REMARK    8  A    between atoms: C_10  and  C_14 
REMARK    9  A    between atoms: C_11  and  C_12 
REMARK   10  A    between atoms: C_12  and  C_16 
REMARK   11  A    between atoms: C_13  and  C_22 
REMARK   12  A    between atoms: C_15  and  C_17 
REMARK   13  A    between atoms: C_15  and  C_20 
REMARK   14  A    between atoms: C_18  and  C_19 
REMARK   15  A    between atoms: C_18  and  C_21 
ROOT
HETATM    1  O   UNL     1      46.636  -6.927 -16.059  1.00  0.00    -0.776 OA
HETATM    2  H   UNL     1      46.213  -6.185 -15.605  1.00  0.00     0.167 HD
ENDROOT
BRANCH   1   3
HETATM    3  C   UNL     1      47.927  -7.247 -15.832  1.00  0.00     0.139 C 
HETATM    4  O   UNL     1      48.303  -8.404 -15.955  1.00  0.00    -0.650 OA
BRANCH   3   5
HETATM    5  C   UNL     1      48.900  -6.179 -15.415  1.00  0.00     0.110 C 
BRANCH   5   6
HETATM    6  C   UNL     1      50.195  -6.214 -16.239  1.00  0.00     0.014 C 
BRANCH   6   7
HETATM    7  C   UNL     1      51.370  -6.829 -15.467  1.00  0.00     0.027 C 
BRANCH   7   8
HETATM    8  C   UNL     1      52.524  -7.071 -16.408  1.00  0.00    -0.030 C 
HETATM    9  C   UNL     1      53.776  -7.394 -16.033  1.00  0.00    -0.027 C 
BRANCH   9  10
HETATM   10  C   UNL     1      54.240  -7.594 -14.612  1.00  0.00     0.053 C 
BRANCH  10  11
HETATM   11  C   UNL     1      53.399  -8.632 -13.902  1.00  0.00    -0.027 C 
HETATM   12  C   UNL     1      53.166  -8.733 -12.577  1.00  0.00    -0.027 C 
BRANCH  12  13
HETATM   13  C   UNL     1      53.677  -7.818 -11.494  1.00  0.00     0.053 C 
BRANCH  13  14
HETATM   14  C   UNL     1      53.769  -8.567 -10.185  1.00  0.00    -0.027 C 
HETATM   15  C   UNL     1      53.082  -8.257  -9.067  1.00  0.00    -0.027 C 
BRANCH  15  16
HETATM   16  C   UNL     1      52.126  -7.100  -8.945  1.00  0.00     0.053 C 
BRANCH  16  17
HETATM   17  C   UNL     1      50.692  -7.552  -9.071  1.00  0.00    -0.027 C 
HETATM   18  C   UNL     1      49.840  -7.093 -10.004  1.00  0.00    -0.030 C 
BRANCH  18  19
HETATM   19  C   UNL     1      50.182  -6.060 -11.047  1.00  0.00     0.027 C 
BRANCH  19  20
HETATM   20  C   UNL     1      48.900  -5.574 -11.730  1.00  0.00     0.004 C 
BRANCH  20  21
HETATM   21  C   UNL     1      47.672  -6.325 -11.204  1.00  0.00    -0.000 C 
BRANCH  21  22
HETATM   22  C   UNL     1      46.470  -6.127 -12.135  1.00  0.00    -0.005 C 
HETATM   23  C   UNL     1      45.326  -5.419 -11.415  1.00  0.00     0.005 C 
ENDBRANCH  21  22
ENDBRANCH  20  21
ENDBRANCH  19  20
ENDBRANCH  18  19
ENDBRANCH  16  17
ENDBRANCH  15  16
ENDBRANCH  13  14
ENDBRANCH  12  13
ENDBRANCH  10  11
ENDBRANCH   9  10
ENDBRANCH   7   8
ENDBRANCH   6   7
ENDBRANCH   5   6
ENDBRANCH   3   5
ENDBRANCH   1   3
TORSDOF 15
ENDMDL
MODEL 7
REMARK VINA RESULT:      -4.9      3.591      5.380
REMARK  15 active torsions:
REMARK  status: ('A' for Active; 'I' for Inactive)
REMARK    1  A    between atoms: O_1  and  C_22 
REMARK    2  A    between atoms: C_3  and  C_4 
REMARK    3  A    between atoms: C_3  and  C_5 
REMARK    4  A    between atoms: C_4  and  C_6 
REMARK    5  A    between atoms: C_5  and  C_7 
REMARK    6  A    between atoms: C_9  and  C_10 
REMARK    7  A    between atoms: C_9  and  C_13 
REMARK    8  A    between atoms: C_10  and  C_14 
REMARK    9  A    between atoms: C_11  and  C_12 
REMARK   10  A    between atoms: C_12  and  C_16 
REMARK   11  A    between atoms: C_13  and  C_22 
REMARK   12  A    between atoms: C_15  and  C_17 
REMARK   13  A    between atoms: C_15  and  C_20 
REMARK   14  A    between atoms: C_18  and  C_19 
REMARK   15  A    between atoms: C_18  and  C_21 
ROOT
HETATM    1  O   UNL     1      54.552  -7.184 -12.881  1.00  0.00    -0.776 OA
HETATM    2  H   UNL     1      54.125  -6.901 -13.702  1.00  0.00     0.167 HD
ENDROOT
BRANCH   1   3
HETATM    3  C   UNL     1      53.881  -7.892 -11.947  1.00  0.00     0.139 C 
HETATM    4  O   UNL     1      53.101  -8.769 -12.287  1.00  0.00    -0.650 OA
BRANCH   3   5
HETATM    5  C   UNL     1      54.089  -7.590 -10.489  1.00  0.00     0.110 C 
BRANCH   5   6
HETATM    6  C   UNL     1      52.908  -8.052  -9.623  1.00  0.00     0.014 C 
BRANCH   6   7
HETATM    7  C   UNL     1      53.352  -8.598  -8.260  1.00  0.00     0.027 C 
BRANCH   7   8
HETATM    8  C   UNL     1      53.626  -7.451  -7.319  1.00  0.00    -0.030 C 
HETATM    9  C   UNL     1      52.714  -6.873  -6.514  1.00  0.00    -0.027 C 
BRANCH   9  10
HETATM   10  C   UNL     1      51.268  -7.284  -6.393  1.00  0.00     0.053 C 
BRANCH  10  11
HETATM   11  C   UNL     1      50.344  -6.103  -6.592  1.00  0.00    -0.027 C 
HETATM   12  C   UNL     1      49.770  -5.695  -7.742  1.00  0.00    -0.027 C 
BRANCH  12  13
HETATM   13  C   UNL     1      49.901  -6.337  -9.100  1.00  0.00     0.053 C 
BRANCH  13  14
HETATM   14  C   UNL     1      48.788  -7.336  -9.309  1.00  0.00    -0.027 C 
HETATM   15  C   UNL     1      47.849  -7.257 -10.274  1.00  0.00    -0.027 C 
BRANCH  15  16
HETATM   16  C   UNL     1      47.758  -6.147 -11.288  1.00  0.00     0.053 C 
BRANCH  16  17
HETATM   17  C   UNL     1      47.156  -6.629 -12.584  1.00  0.00    -0.027 C 
HETATM   18  C   UNL     1      47.741  -6.478 -13.785  1.00  0.00    -0.030 C 
BRANCH  18  19
HETATM   19  C   UNL     1      49.068  -5.800 -14.016  1.00  0.00     0.027 C 
BRANCH  19  20
HETATM   20  C   UNL     1      49.929  -6.658 -14.949  1.00  0.00     0.004 C 
BRANCH  20  21
HETATM   21  C   UNL     1      50.424  -5.845 -16.150  1.00  0.00    -0.000 C 
BRANCH  21  22
HETATM   22  C   UNL     1      49.278  -5.045 -16.778  1.00  0.00    -0.005 C 
HETATM   23  C   UNL     1      48.396  -5.935 -17.649  1.00  0.00     0.005 C 
ENDBRANCH  21  22
ENDBRANCH  20  21
ENDBRANCH  19  20
ENDBRANCH  18  19
ENDBRANCH  16  17
ENDBRANCH  15  16
ENDBRANCH  13  14
ENDBRANCH  12  13
ENDBRANCH  10  11
ENDBRANCH   9  10
ENDBRANCH   7   8
ENDBRANCH   6   7
ENDBRANCH   5   6
ENDBRANCH   3   5
ENDBRANCH   1   3
TORSDOF 15
ENDMDL
MODEL 8
REMARK VINA RESULT:      -4.8     21.805     24.720
REMARK  15 active torsions:
REMARK  status: ('A' for Active; 'I' for Inactive)
REMARK    1  A    between atoms: O_1  and  C_22 
REMARK    2  A    between atoms: C_3  and  C_4 
REMARK    3  A    between atoms: C_3  and  C_5 
REMARK    4  A    between atoms: C_4  and  C_6 
REMARK    5  A    between atoms: C_5  and  C_7 
REMARK    6  A    between atoms: C_9  and  C_10 
REMARK    7  A    between atoms: C_9  and  C_13 
REMARK    8  A    between atoms: C_10  and  C_14 
REMARK    9  A    between atoms: C_11  and  C_12 
REMARK   10  A    between atoms: C_12  and  C_16 
REMARK   11  A    between atoms: C_13  and  C_22 
REMARK   12  A    between atoms: C_15  and  C_17 
REMARK   13  A    between atoms: C_15  and  C_20 
REMARK   14  A    between atoms: C_18  and  C_19 
REMARK   15  A    between atoms: C_18  and  C_21 
ROOT
HETATM    1  O   UNL     1      24.701 -17.473 -19.110  1.00  0.00    -0.776 OA
HETATM    2  H   UNL     1      24.656 -18.252 -19.681  1.00  0.00     0.167 HD
ENDROOT
BRANCH   1   3
HETATM    3  C   UNL     1      25.885 -16.978 -18.688  1.00  0.00     0.139 C 
HETATM    4  O   UNL     1      26.569 -16.301 -19.442  1.00  0.00    -0.650 OA
BRANCH   3   5
HETATM    5  C   UNL     1      26.364 -17.272 -17.293  1.00  0.00     0.110 C 
BRANCH   5   6
HETATM    6  C   UNL     1      27.500 -16.337 -16.857  1.00  0.00     0.014 C 
BRANCH   6   7
HETATM    7  C   UNL     1      27.297 -15.778 -15.443  1.00  0.00     0.027 C 
BRANCH   7   8
HETATM    8  C   UNL     1      26.262 -16.600 -14.716  1.00  0.00    -0.030 C 
HETATM    9  C   UNL     1      26.382 -17.064 -13.458  1.00  0.00    -0.027 C 
BRANCH   9  10
HETATM   10  C   UNL     1      27.559 -16.825 -12.546  1.00  0.00     0.053 C 
BRANCH  10  11
HETATM   11  C   UNL     1      27.144 -16.076 -11.299  1.00  0.00    -0.027 C 
HETATM   12  C   UNL     1      27.503 -14.829 -10.933  1.00  0.00    -0.027 C 
BRANCH  12  13
HETATM   13  C   UNL     1      28.391 -13.879 -11.697  1.00  0.00     0.053 C 
BRANCH  13  14
HETATM   14  C   UNL     1      27.605 -13.210 -12.799  1.00  0.00    -0.027 C 
HETATM   15  C   UNL     1      28.139 -12.674 -13.915  1.00  0.00    -0.027 C 
BRANCH  15  16
HETATM   16  C   UNL     1      29.613 -12.646 -14.228  1.00  0.00     0.053 C 
BRANCH  16  17
HETATM   17  C   UNL     1      29.880 -12.033 -15.580  1.00  0.00    -0.027 C 
HETATM   18  C   UNL     1      30.258 -12.737 -16.661  1.00  0.00    -0.030 C 
BRANCH  18  19
HETATM   19  C   UNL     1      30.482 -14.228 -16.681  1.00  0.00     0.027 C 
BRANCH  19  20
HETATM   20  C   UNL     1      31.972 -14.528 -16.487  1.00  0.00     0.004 C 
BRANCH  20  21
HETATM   21  C   UNL     1      32.185 -15.625 -15.438  1.00  0.00    -0.000 C 
BRANCH  21  22
HETATM   22  C   UNL     1      30.859 -16.010 -14.772  1.00  0.00    -0.005 C 
HETATM   23  C   UNL     1      30.994 -16.041 -13.253  1.00  0.00     0.005 C 
ENDBRANCH  21  22
ENDBRANCH  20  21
ENDBRANCH  19  20
ENDBRANCH  18  19
ENDBRANCH  16  17
ENDBRANCH  15  16
ENDBRANCH  13  14
ENDBRANCH  12  13
ENDBRANCH  10  11
ENDBRANCH   9  10
ENDBRANCH   7   8
ENDBRANCH   6   7
ENDBRANCH   5   6
ENDBRANCH   3   5
ENDBRANCH   1   3
TORSDOF 15
ENDMDL
MODEL 9
REMARK VINA RESULT:      -4.8      4.658      7.480
REMARK  15 active torsions:
REMARK  status: ('A' for Active; 'I' for Inactive)
REMARK    1  A    between atoms: O_1  and  C_22 
REMARK    2  A    between atoms: C_3  and  C_4 
REMARK    3  A    between atoms: C_3  and  C_5 
REMARK    4  A    between atoms: C_4  and  C_6 
REMARK    5  A    between atoms: C_5  and  C_7 
REMARK    6  A    between atoms: C_9  and  C_10 
REMARK    7  A    between atoms: C_9  and  C_13 
REMARK    8  A    between atoms: C_10  and  C_14 
REMARK    9  A    between atoms: C_11  and  C_12 
REMARK   10  A    between atoms: C_12  and  C_16 
REMARK   11  A    between atoms: C_13  and  C_22 
REMARK   12  A    between atoms: C_15  and  C_17 
REMARK   13  A    between atoms: C_15  and  C_20 
REMARK   14  A    between atoms: C_18  and  C_19 
REMARK   15  A    between atoms: C_18  and  C_21 
ROOT
HETATM    1  O   UNL     1      47.573  -5.731 -10.640  1.00  0.00    -0.776 OA
HETATM    2  H   UNL     1      48.054  -5.142 -10.042  1.00  0.00     0.167 HD
ENDROOT
BRANCH   1   3
HETATM    3  C   UNL     1      46.609  -6.560 -10.185  1.00  0.00     0.139 C 
HETATM    4  O   UNL     1      45.716  -6.930 -10.933  1.00  0.00    -0.650 OA
BRANCH   3   5
HETATM    5  C   UNL     1      46.632  -7.018  -8.753  1.00  0.00     0.110 C 
BRANCH   5   6
HETATM    6  C   UNL     1      47.856  -7.889  -8.437  1.00  0.00     0.014 C 
BRANCH   6   7
HETATM    7  C   UNL     1      48.306  -7.770  -6.975  1.00  0.00     0.027 C 
BRANCH   7   8
HETATM    8  C   UNL     1      49.003  -6.449  -6.765  1.00  0.00    -0.030 C 
HETATM    9  C   UNL     1      50.228  -6.135  -7.226  1.00  0.00    -0.027 C 
BRANCH   9  10
HETATM   10  C   UNL     1      51.108  -7.037  -8.054  1.00  0.00     0.053 C 
BRANCH  10  11
HETATM   11  C   UNL     1      52.392  -7.368  -7.327  1.00  0.00    -0.027 C 
HETATM   12  C   UNL     1      53.460  -8.036  -7.811  1.00  0.00    -0.027 C 
BRANCH  12  13
HETATM   13  C   UNL     1      53.629  -8.593  -9.201  1.00  0.00     0.053 C 
BRANCH  13  14
HETATM   14  C   UNL     1      54.436  -7.636 -10.047  1.00  0.00    -0.027 C 
HETATM   15  C   UNL     1      54.060  -7.164 -11.253  1.00  0.00    -0.027 C 
BRANCH  15  16
HETATM   16  C   UNL     1      52.779  -7.533 -11.953  1.00  0.00     0.053 C 
BRANCH  16  17
HETATM   17  C   UNL     1      51.657  -6.595 -11.584  1.00  0.00    -0.027 C 
HETATM   18  C   UNL     1      50.482  -6.538 -12.236  1.00  0.00    -0.030 C 
BRANCH  18  19
HETATM   19  C   UNL     1      50.118  -7.385 -13.428  1.00  0.00     0.027 C 
BRANCH  19  20
HETATM   20  C   UNL     1      50.283  -6.566 -14.712  1.00  0.00     0.004 C 
BRANCH  20  21
HETATM   21  C   UNL     1      48.924  -6.249 -15.347  1.00  0.00    -0.000 C 
BRANCH  21  22
HETATM   22  C   UNL     1      48.994  -4.960 -16.173  1.00  0.00    -0.005 C 
HETATM   23  C   UNL     1      49.012  -5.264 -17.668  1.00  0.00     0.005 C 
ENDBRANCH  21  22
ENDBRANCH  20  21
ENDBRANCH  19  20
ENDBRANCH  18  19
ENDBRANCH  16  17
ENDBRANCH  15  16
ENDBRANCH  13  14
ENDBRANCH  12  13
ENDBRANCH  10  11
ENDBRANCH   9  10
ENDBRANCH   7   8
ENDBRANCH   6   7
ENDBRANCH   5   6
ENDBRANCH   3   5
ENDBRANCH   1   3
TORSDOF 15
ENDMDL
MODEL 10
REMARK VINA RESULT:      -4.8      2.983      5.931
REMARK  15 active torsions:
REMARK  status: ('A' for Active; 'I' for Inactive)
REMARK    1  A    between atoms: O_1  and  C_22 
REMARK    2  A    between atoms: C_3  and  C_4 
REMARK    3  A    between atoms: C_3  and  C_5 
REMARK    4  A    between atoms: C_4  and  C_6 
REMARK    5  A    between atoms: C_5  and  C_7 
REMARK    6  A    between atoms: C_9  and  C_10 
REMARK    7  A    between atoms: C_9  and  C_13 
REMARK    8  A    between atoms: C_10  and  C_14 
REMARK    9  A    between atoms: C_11  and  C_12 
REMARK   10  A    between atoms: C_12  and  C_16 
REMARK   11  A    between atoms: C_13  and  C_22 
REMARK   12  A    between atoms: C_15  and  C_17 
REMARK   13  A    between atoms: C_15  and  C_20 
REMARK   14  A    between atoms: C_18  and  C_19 
REMARK   15  A    between atoms: C_18  and  C_21 
ROOT
HETATM    1  O   UNL     1      48.399  -5.396 -17.924  1.00  0.00    -0.776 OA
HETATM    2  H   UNL     1      49.025  -5.383 -18.662  1.00  0.00     0.167 HD
ENDROOT
BRANCH   1   3
HETATM    3  C   UNL     1      48.588  -4.631 -16.828  1.00  0.00     0.139 C 
HETATM    4  O   UNL     1      48.760  -3.426 -16.944  1.00  0.00    -0.650 OA
BRANCH   3   5
HETATM    5  C   UNL     1      48.599  -5.267 -15.466  1.00  0.00     0.110 C 
BRANCH   5   6
HETATM    6  C   UNL     1      49.031  -6.740 -15.512  1.00  0.00     0.014 C 
BRANCH   6   7
HETATM    7  C   UNL     1      49.793  -7.173 -14.253  1.00  0.00     0.027 C 
BRANCH   7   8
HETATM    8  C   UNL     1      48.945  -8.127 -13.449  1.00  0.00    -0.030 C 
HETATM    9  C   UNL     1      48.076  -7.769 -12.485  1.00  0.00    -0.027 C 
BRANCH   9  10
HETATM   10  C   UNL     1      47.779  -6.355 -12.055  1.00  0.00     0.053 C 
BRANCH  10  11
HETATM   11  C   UNL     1      46.465  -6.272 -11.310  1.00  0.00    -0.027 C 
HETATM   12  C   UNL     1      46.198  -6.719 -10.066  1.00  0.00    -0.027 C 
BRANCH  12  13
HETATM   13  C   UNL     1      47.158  -7.390  -9.117  1.00  0.00     0.053 C 
BRANCH  13  14
HETATM   14  C   UNL     1      47.787  -6.363  -8.206  1.00  0.00    -0.027 C 
HETATM   15  C   UNL     1      49.112  -6.232  -7.987  1.00  0.00    -0.027 C 
BRANCH  15  16
HETATM   16  C   UNL     1      50.171  -7.104  -8.608  1.00  0.00     0.053 C 
BRANCH  16  17
HETATM   17  C   UNL     1      50.484  -6.673 -10.019  1.00  0.00    -0.027 C 
HETATM   18  C   UNL     1      51.658  -6.910 -10.632  1.00  0.00    -0.030 C 
BRANCH  18  19
HETATM   19  C   UNL     1      52.828  -7.622 -10.003  1.00  0.00     0.027 C 
BRANCH  19  20
HETATM   20  C   UNL     1      53.720  -8.214 -11.100  1.00  0.00     0.004 C 
BRANCH  20  21
HETATM   21  C   UNL     1      53.378  -7.623 -12.472  1.00  0.00    -0.000 C 
BRANCH  21  22
HETATM   22  C   UNL     1      53.124  -8.734 -13.497  1.00  0.00    -0.005 C 
HETATM   23  C   UNL     1      53.960  -8.524 -14.756  1.00  0.00     0.005 C 
ENDBRANCH  21  22
ENDBRANCH  20  21
ENDBRANCH  19  20
ENDBRANCH  18  19
ENDBRANCH  16  17
ENDBRANCH  15  16
ENDBRANCH  13  14
ENDBRANCH  12  13
ENDBRANCH  10  11
ENDBRANCH   9  10
ENDBRANCH   7   8
ENDBRANCH   6   7
ENDBRANCH   5   6
ENDBRANCH   3   5
ENDBRANCH   1   3
TORSDOF 15
ENDMDL
MODEL 11
REMARK VINA RESULT:      -4.7      5.455      8.094
REMARK  15 active torsions:
REMARK  status: ('A' for Active; 'I' for Inactive)
REMARK    1  A    between atoms: O_1  and  C_22 
REMARK    2  A    between atoms: C_3  and  C_4 
REMARK    3  A    between atoms: C_3  and  C_5 
REMARK    4  A    between atoms: C_4  and  C_6 
REMARK    5  A    between atoms: C_5  and  C_7 
REMARK    6  A    between atoms: C_9  and  C_10 
REMARK    7  A    between atoms: C_9  and  C_13 
REMARK    8  A    between atoms: C_10  and  C_14 
REMARK    9  A    between atoms: C_11  and  C_12 
REMARK   10  A    between atoms: C_12  and  C_16 
REMARK   11  A    between atoms: C_13  and  C_22 
REMARK   12  A    between atoms: C_15  and  C_17 
REMARK   13  A    between atoms: C_15  and  C_20 
REMARK   14  A    between atoms: C_18  and  C_19 
REMARK   15  A    between atoms: C_18  and  C_21 
ROOT
HETATM    1  O   UNL     1      54.663  -7.301 -12.927  1.00  0.00    -0.776 OA
HETATM    2  H   UNL     1      54.298  -6.844 -13.698  1.00  0.00     0.167 HD
ENDROOT
BRANCH   1   3
HETATM    3  C   UNL     1      53.862  -7.833 -11.980  1.00  0.00     0.139 C 
HETATM    4  O   UNL     1      52.950  -8.581 -12.299  1.00  0.00    -0.650 OA
BRANCH   3   5
HETATM    5  C   UNL     1      54.089  -7.493 -10.533  1.00  0.00     0.110 C 
BRANCH   5   6
HETATM    6  C   UNL     1      52.951  -7.992  -9.631  1.00  0.00     0.014 C 
BRANCH   6   7
HETATM    7  C   UNL     1      53.454  -8.524  -8.283  1.00  0.00     0.027 C 
BRANCH   7   8
HETATM    8  C   UNL     1      53.829  -7.369  -7.389  1.00  0.00    -0.030 C 
HETATM    9  C   UNL     1      53.655  -7.331  -6.054  1.00  0.00    -0.027 C 
BRANCH   9  10
HETATM   10  C   UNL     1      53.078  -8.444  -5.216  1.00  0.00     0.053 C 
BRANCH  10  11
HETATM   11  C   UNL     1      52.522  -7.917  -3.912  1.00  0.00    -0.027 C 
HETATM   12  C   UNL     1      51.337  -7.305  -3.712  1.00  0.00    -0.027 C 
BRANCH  12  13
HETATM   13  C   UNL     1      50.277  -7.021  -4.746  1.00  0.00     0.053 C 
BRANCH  13  14
HETATM   14  C   UNL     1      49.145  -8.012  -4.610  1.00  0.00    -0.027 C 
HETATM   15  C   UNL     1      47.834  -7.698  -4.647  1.00  0.00    -0.027 C 
BRANCH  15  16
HETATM   16  C   UNL     1      47.295  -6.301  -4.812  1.00  0.00     0.053 C 
BRANCH  16  17
HETATM   17  C   UNL     1      46.228  -6.243  -5.877  1.00  0.00    -0.027 C 
HETATM   18  C   UNL     1      46.481  -6.300  -7.196  1.00  0.00    -0.030 C 
BRANCH  18  19
HETATM   19  C   UNL     1      47.856  -6.417  -7.804  1.00  0.00     0.027 C 
BRANCH  19  20
HETATM   20  C   UNL     1      48.077  -7.847  -8.306  1.00  0.00     0.004 C 
BRANCH  20  21
HETATM   21  C   UNL     1      48.634  -7.854  -9.734  1.00  0.00    -0.000 C 
BRANCH  21  22
HETATM   22  C   UNL     1      48.673  -6.434 -10.312  1.00  0.00    -0.005 C 
HETATM   23  C   UNL     1      50.044  -6.118 -10.903  1.00  0.00     0.005 C 
ENDBRANCH  21  22
ENDBRANCH  20  21
ENDBRANCH  19  20
ENDBRANCH  18  19
ENDBRANCH  16  17
ENDBRANCH  15  16
ENDBRANCH  13  14
ENDBRANCH  12  13
ENDBRANCH  10  11
ENDBRANCH   9  10
ENDBRANCH   7   8
ENDBRANCH   6   7
ENDBRANCH   5   6
ENDBRANCH   3   5
ENDBRANCH   1   3
TORSDOF 15
ENDMDL
MODEL 12
REMARK VINA RESULT:      -4.7      2.943      5.841
REMARK  15 active torsions:
REMARK  status: ('A' for Active; 'I' for Inactive)
REMARK    1  A    between atoms: O_1  and  C_22 
REMARK    2  A    between atoms: C_3  and  C_4 
REMARK    3  A    between atoms: C_3  and  C_5 
REMARK    4  A    between atoms: C_4  and  C_6 
REMARK    5  A    between atoms: C_5  and  C_7 
REMARK    6  A    between atoms: C_9  and  C_10 
REMARK    7  A    between atoms: C_9  and  C_13 
REMARK    8  A    between atoms: C_10  and  C_14 
REMARK    9  A    between atoms: C_11  and  C_12 
REMARK   10  A    between atoms: C_12  and  C_16 
REMARK   11  A    between atoms: C_13  and  C_22 
REMARK   12  A    between atoms: C_15  and  C_17 
REMARK   13  A    between atoms: C_15  and  C_20 
REMARK   14  A    between atoms: C_18  and  C_19 
REMARK   15  A    between atoms: C_18  and  C_21 
ROOT
HETATM    1  O   UNL     1      46.847  -6.236 -17.758  1.00  0.00    -0.776 OA
HETATM    2  H   UNL     1      47.253  -5.594 -17.159  1.00  0.00     0.167 HD
ENDROOT
BRANCH   1   3
HETATM    3  C   UNL     1      47.434  -6.580 -18.924  1.00  0.00     0.139 C 
HETATM    4  O   UNL     1      46.996  -7.515 -19.578  1.00  0.00    -0.650 OA
BRANCH   3   5
HETATM    5  C   UNL     1      48.636  -5.817 -19.408  1.00  0.00     0.110 C 
BRANCH   5   6
HETATM    6  C   UNL     1      49.922  -6.655 -19.351  1.00  0.00     0.014 C 
BRANCH   6   7
HETATM    7  C   UNL     1      50.333  -7.009 -17.916  1.00  0.00     0.027 C 
BRANCH   7   8
HETATM    8  C   UNL     1      50.254  -5.780 -17.047  1.00  0.00    -0.030 C 
HETATM    9  C   UNL     1      50.031  -5.781 -15.719  1.00  0.00    -0.027 C 
BRANCH   9  10
HETATM   10  C   UNL     1      49.847  -7.010 -14.864  1.00  0.00     0.053 C 
BRANCH  10  11
HETATM   11  C   UNL     1      48.443  -7.558 -14.989  1.00  0.00    -0.027 C 
HETATM   12  C   UNL     1      47.577  -7.831 -13.991  1.00  0.00    -0.027 C 
BRANCH  12  13
HETATM   13  C   UNL     1      47.803  -7.633 -12.514  1.00  0.00     0.053 C 
BRANCH  13  14
HETATM   14  C   UNL     1      46.910  -6.530 -11.998  1.00  0.00    -0.027 C 
HETATM   15  C   UNL     1      47.343  -5.379 -11.442  1.00  0.00    -0.027 C 
BRANCH  15  16
HETATM   16  C   UNL     1      48.792  -5.024 -11.235  1.00  0.00     0.053 C 
BRANCH  16  17
HETATM   17  C   UNL     1      49.438  -5.915 -10.204  1.00  0.00    -0.027 C 
HETATM   18  C   UNL     1      50.628  -6.518 -10.372  1.00  0.00    -0.030 C 
BRANCH  18  19
HETATM   19  C   UNL     1      51.482  -6.404 -11.610  1.00  0.00     0.027 C 
BRANCH  19  20
HETATM   20  C   UNL     1      52.377  -7.641 -11.733  1.00  0.00     0.004 C 
BRANCH  20  21
HETATM   21  C   UNL     1      53.841  -7.247 -11.954  1.00  0.00    -0.000 C 
BRANCH  21  22
HETATM   22  C   UNL     1      54.615  -7.255 -10.631  1.00  0.00    -0.005 C 
HETATM   23  C   UNL     1      53.943  -8.161  -9.604  1.00  0.00     0.005 C 
ENDBRANCH  21  22
ENDBRANCH  20  21
ENDBRANCH  19  20
ENDBRANCH  18  19
ENDBRANCH  16  17
ENDBRANCH  15  16
ENDBRANCH  13  14
ENDBRANCH  12  13
ENDBRANCH  10  11
ENDBRANCH   9  10
ENDBRANCH   7   8
ENDBRANCH   6   7
ENDBRANCH   5   6
ENDBRANCH   3   5
ENDBRANCH   1   3
TORSDOF 15
ENDMDL
MODEL 13
REMARK VINA RESULT:      -4.7      2.398      4.026
REMARK  15 active torsions:
REMARK  status: ('A' for Active; 'I' for Inactive)
REMARK    1  A    between atoms: O_1  and  C_22 
REMARK    2  A    between atoms: C_3  and  C_4 
REMARK    3  A    between atoms: C_3  and  C_5 
REMARK    4  A    between atoms: C_4  and  C_6 
REMARK    5  A    between atoms: C_5  and  C_7 
REMARK    6  A    between atoms: C_9  and  C_10 
REMARK    7  A    between atoms: C_9  and  C_13 
REMARK    8  A    between atoms: C_10  and  C_14 
REMARK    9  A    between atoms: C_11  and  C_12 
REMARK   10  A    between atoms: C_12  and  C_16 
REMARK   11  A    between atoms: C_13  and  C_22 
REMARK   12  A    between atoms: C_15  and  C_17 
REMARK   13  A    between atoms: C_15  and  C_20 
REMARK   14  A    between atoms: C_18  and  C_19 
REMARK   15  A    between atoms: C_18  and  C_21 
ROOT
HETATM    1  O   UNL     1      53.504  -9.463 -24.433  1.00  0.00    -0.776 OA
HETATM    2  H   UNL     1      53.796  -9.263 -25.334  1.00  0.00     0.167 HD
ENDROOT
BRANCH   1   3
HETATM    3  C   UNL     1      52.973  -8.509 -23.639  1.00  0.00     0.139 C 
HETATM    4  O   UNL     1      52.282  -7.624 -24.122  1.00  0.00    -0.650 OA
BRANCH   3   5
HETATM    5  C   UNL     1      53.242  -8.533 -22.159  1.00  0.00     0.110 C 
BRANCH   5   6
HETATM    6  C   UNL     1      53.962  -7.266 -21.676  1.00  0.00     0.014 C 
BRANCH   6   7
HETATM    7  C   UNL     1      54.488  -7.395 -20.241  1.00  0.00     0.027 C 
BRANCH   7   8
HETATM    8  C   UNL     1      53.801  -8.546 -19.550  1.00  0.00    -0.030 C 
HETATM    9  C   UNL     1      53.153  -8.469 -18.372  1.00  0.00    -0.027 C 
BRANCH   9  10
HETATM   10  C   UNL     1      52.979  -7.217 -17.550  1.00  0.00     0.053 C 
BRANCH  10  11
HETATM   11  C   UNL     1      52.852  -7.541 -16.078  1.00  0.00    -0.027 C 
HETATM   12  C   UNL     1      51.838  -7.216 -15.251  1.00  0.00    -0.027 C 
BRANCH  12  13
HETATM   13  C   UNL     1      50.579  -6.468 -15.609  1.00  0.00     0.053 C 
BRANCH  13  14
HETATM   14  C   UNL     1      49.389  -7.102 -14.928  1.00  0.00    -0.027 C 
HETATM   15  C   UNL     1      48.201  -7.346 -15.516  1.00  0.00    -0.027 C 
BRANCH  15  16
HETATM   16  C   UNL     1      47.871  -7.008 -16.947  1.00  0.00     0.053 C 
BRANCH  16  17
HETATM   17  C   UNL     1      48.374  -8.067 -17.896  1.00  0.00    -0.027 C 
HETATM   18  C   UNL     1      49.233  -7.825 -18.902  1.00  0.00    -0.030 C 
BRANCH  18  19
HETATM   19  C   UNL     1      49.806  -6.471 -19.236  1.00  0.00     0.027 C 
BRANCH  19  20
HETATM   20  C   UNL     1      50.509  -6.532 -20.597  1.00  0.00     0.004 C 
BRANCH  20  21
HETATM   21  C   UNL     1      50.114  -5.343 -21.479  1.00  0.00    -0.000 C 
BRANCH  21  22
HETATM   22  C   UNL     1      49.515  -5.822 -22.806  1.00  0.00    -0.005 C 
HETATM   23  C   UNL     1      48.130  -6.427 -22.599  1.00  0.00     0.005 C 
ENDBRANCH  21  22
ENDBRANCH  20  21
ENDBRANCH  19  20
ENDBRANCH  18  19
ENDBRANCH  16  17
ENDBRANCH  15  16
ENDBRANCH  13  14
ENDBRANCH  12  13
ENDBRANCH  10  11
ENDBRANCH   9  10
ENDBRANCH   7   8
ENDBRANCH   6   7
ENDBRANCH   5   6
ENDBRANCH   3   5
ENDBRANCH   1   3
TORSDOF 15
ENDMDL
MODEL 14
REMARK VINA RESULT:      -4.7      4.175      6.115
REMARK  15 active torsions:
REMARK  status: ('A' for Active; 'I' for Inactive)
REMARK    1  A    between atoms: O_1  and  C_22 
REMARK    2  A    between atoms: C_3  and  C_4 
REMARK    3  A    between atoms: C_3  and  C_5 
REMARK    4  A    between atoms: C_4  and  C_6 
REMARK    5  A    between atoms: C_5  and  C_7 
REMARK    6  A    between atoms: C_9  and  C_10 
REMARK    7  A    between atoms: C_9  and  C_13 
REMARK    8  A    between atoms: C_10  and  C_14 
REMARK    9  A    between atoms: C_11  and  C_12 
REMARK   10  A    between atoms: C_12  and  C_16 
REMARK   11  A    between atoms: C_13  and  C_22 
REMARK   12  A    between atoms: C_15  and  C_17 
REMARK   13  A    between atoms: C_15  and  C_20 
REMARK   14  A    between atoms: C_18  and  C_19 
REMARK   15  A    between atoms: C_18  and  C_21 
ROOT
HETATM    1  O   UNL     1      51.279  -8.179  -9.069  1.00  0.00    -0.776 OA
HETATM    2  H   UNL     1      50.951  -8.700  -9.816  1.00  0.00     0.167 HD
ENDROOT
BRANCH   1   3
HETATM    3  C   UNL     1      52.570  -8.242  -8.681  1.00  0.00     0.139 C 
HETATM    4  O   UNL     1      52.887  -7.909  -7.548  1.00  0.00    -0.650 OA
BRANCH   3   5
HETATM    5  C   UNL     1      53.620  -8.711  -9.651  1.00  0.00     0.110 C 
BRANCH   5   6
HETATM    6  C   UNL     1      54.276  -7.548 -10.409  1.00  0.00     0.014 C 
BRANCH   6   7
HETATM    7  C   UNL     1      53.490  -7.140 -11.661  1.00  0.00     0.027 C 
BRANCH   7   8
HETATM    8  C   UNL     1      53.576  -8.235 -12.695  1.00  0.00    -0.030 C 
HETATM    9  C   UNL     1      52.798  -8.332 -13.789  1.00  0.00    -0.027 C 
BRANCH   9  10
HETATM   10  C   UNL     1      51.723  -7.353 -14.188  1.00  0.00     0.053 C 
BRANCH  10  11
HETATM   11  C   UNL     1      50.535  -7.433 -13.254  1.00  0.00    -0.027 C 
HETATM   12  C   UNL     1      49.229  -7.455 -13.589  1.00  0.00    -0.027 C 
BRANCH  12  13
HETATM   13  C   UNL     1      48.648  -7.426 -14.980  1.00  0.00     0.053 C 
BRANCH  13  14
HETATM   14  C   UNL     1      48.554  -6.001 -15.471  1.00  0.00    -0.027 C 
HETATM   15  C   UNL     1      48.516  -5.631 -16.767  1.00  0.00    -0.027 C 
BRANCH  15  16
HETATM   16  C   UNL     1      48.578  -6.586 -17.930  1.00  0.00     0.053 C 
BRANCH  16  17
HETATM   17  C   UNL     1      47.234  -6.730 -18.600  1.00  0.00    -0.027 C 
HETATM   18  C   UNL     1      47.072  -7.083 -19.887  1.00  0.00    -0.030 C 
BRANCH  18  19
HETATM   19  C   UNL     1      48.198  -7.373 -20.848  1.00  0.00     0.027 C 
BRANCH  19  20
HETATM   20  C   UNL     1      47.832  -6.851 -22.241  1.00  0.00     0.004 C 
BRANCH  20  21
HETATM   21  C   UNL     1      48.989  -6.057 -22.857  1.00  0.00    -0.000 C 
BRANCH  21  22
HETATM   22  C   UNL     1      49.691  -5.201 -21.796  1.00  0.00    -0.005 C 
HETATM   23  C   UNL     1      48.903  -3.926 -21.509  1.00  0.00     0.005 C 
ENDBRANCH  21  22
ENDBRANCH  20  21
ENDBRANCH  19  20
ENDBRANCH  18  19
ENDBRANCH  16  17
ENDBRANCH  15  16
ENDBRANCH  13  14
ENDBRANCH  12  13
ENDBRANCH  10  11
ENDBRANCH   9  10
ENDBRANCH   7   8
ENDBRANCH   6   7
ENDBRANCH   5   6
ENDBRANCH   3   5
ENDBRANCH   1   3
TORSDOF 15
ENDMDL
MODEL 15
REMARK VINA RESULT:      -4.7      2.816      5.463
REMARK  15 active torsions:
REMARK  status: ('A' for Active; 'I' for Inactive)
REMARK    1  A    between atoms: O_1  and  C_22 
REMARK    2  A    between atoms: C_3  and  C_4 
REMARK    3  A    between atoms: C_3  and  C_5 
REMARK    4  A    between atoms: C_4  and  C_6 
REMARK    5  A    between atoms: C_5  and  C_7 
REMARK    6  A    between atoms: C_9  and  C_10 
REMARK    7  A    between atoms: C_9  and  C_13 
REMARK    8  A    between atoms: C_10  and  C_14 
REMARK    9  A    between atoms: C_11  and  C_12 
REMARK   10  A    between atoms: C_12  and  C_16 
REMARK   11  A    between atoms: C_13  and  C_22 
REMARK   12  A    between atoms: C_15  and  C_17 
REMARK   13  A    between atoms: C_15  and  C_20 
REMARK   14  A    between atoms: C_18  and  C_19 
REMARK   15  A    between atoms: C_18  and  C_21 
ROOT
HETATM    1  O   UNL     1      52.233  -7.374 -21.736  1.00  0.00    -0.776 OA
HETATM    2  H   UNL     1      51.826  -6.496 -21.751  1.00  0.00     0.167 HD
ENDROOT
BRANCH   1   3
HETATM    3  C   UNL     1      53.571  -7.526 -21.633  1.00  0.00     0.139 C 
HETATM    4  O   UNL     1      54.253  -7.649 -22.640  1.00  0.00    -0.650 OA
BRANCH   3   5
HETATM    5  C   UNL     1      54.217  -7.557 -20.275  1.00  0.00     0.110 C 
BRANCH   5   6
HETATM    6  C   UNL     1      53.738  -8.744 -19.428  1.00  0.00     0.014 C 
BRANCH   6   7
HETATM    7  C   UNL     1      52.765  -8.325 -18.318  1.00  0.00     0.027 C 
BRANCH   7   8
HETATM    8  C   UNL     1      53.510  -7.564 -17.250  1.00  0.00    -0.030 C 
HETATM    9  C   UNL     1      52.951  -7.013 -16.156  1.00  0.00    -0.027 C 
BRANCH   9  10
HETATM   10  C   UNL     1      51.488  -7.079 -15.795  1.00  0.00     0.053 C 
BRANCH  10  11
HETATM   11  C   UNL     1      50.705  -5.978 -16.475  1.00  0.00    -0.027 C 
HETATM   12  C   UNL     1      49.618  -6.110 -17.263  1.00  0.00    -0.027 C 
BRANCH  12  13
HETATM   13  C   UNL     1      48.916  -7.392 -17.633  1.00  0.00     0.053 C 
BRANCH  13  14
HETATM   14  C   UNL     1      47.676  -7.088 -18.439  1.00  0.00    -0.027 C 
HETATM   15  C   UNL     1      47.642  -6.931 -19.778  1.00  0.00    -0.027 C 
BRANCH  15  16
HETATM   16  C   UNL     1      48.847  -7.020 -20.678  1.00  0.00     0.053 C 
BRANCH  16  17
HETATM   17  C   UNL     1      49.199  -5.675 -21.264  1.00  0.00    -0.027 C 
HETATM   18  C   UNL     1      49.339  -5.444 -22.581  1.00  0.00    -0.030 C 
BRANCH  18  19
HETATM   19  C   UNL     1      49.177  -6.487 -23.659  1.00  0.00     0.027 C 
BRANCH  19  20
HETATM   20  C   UNL     1      47.715  -6.533 -24.115  1.00  0.00     0.004 C 
BRANCH  20  21
HETATM   21  C   UNL     1      47.116  -7.929 -23.917  1.00  0.00    -0.000 C 
BRANCH  21  22
HETATM   22  C   UNL     1      48.108  -9.016 -24.348  1.00  0.00    -0.005 C 
HETATM   23  C   UNL     1      48.019 -10.237 -23.437  1.00  0.00     0.005 C 
ENDBRANCH  21  22
ENDBRANCH  20  21
ENDBRANCH  19  20
ENDBRANCH  18  19
ENDBRANCH  16  17
ENDBRANCH  15  16
ENDBRANCH  13  14
ENDBRANCH  12  13
ENDBRANCH  10  11
ENDBRANCH   9  10
ENDBRANCH   7   8
ENDBRANCH   6   7
ENDBRANCH   5   6
ENDBRANCH   3   5
ENDBRANCH   1   3
TORSDOF 15
ENDMDL
MODEL 16
REMARK VINA RESULT:      -4.6     21.501     24.308
REMARK  15 active torsions:
REMARK  status: ('A' for Active; 'I' for Inactive)
REMARK    1  A    between atoms: O_1  and  C_22 
REMARK    2  A    between atoms: C_3  and  C_4 
REMARK    3  A    between atoms: C_3  and  C_5 
REMARK    4  A    between atoms: C_4  and  C_6 
REMARK    5  A    between atoms: C_5  and  C_7 
REMARK    6  A    between atoms: C_9  and  C_10 
REMARK    7  A    between atoms: C_9  and  C_13 
REMARK    8  A    between atoms: C_10  and  C_14 
REMARK    9  A    between atoms: C_11  and  C_12 
REMARK   10  A    between atoms: C_12  and  C_16 
REMARK   11  A    between atoms: C_13  and  C_22 
REMARK   12  A    between atoms: C_15  and  C_17 
REMARK   13  A    between atoms: C_15  and  C_20 
REMARK   14  A    between atoms: C_18  and  C_19 
REMARK   15  A    between atoms: C_18  and  C_21 
ROOT
HETATM    1  O   UNL     1      24.670 -17.444 -18.947  1.00  0.00    -0.776 OA
HETATM    2  H   UNL     1      24.580 -17.927 -19.781  1.00  0.00     0.167 HD
ENDROOT
BRANCH   1   3
HETATM    3  C   UNL     1      25.862 -16.955 -18.543  1.00  0.00     0.139 C 
HETATM    4  O   UNL     1      26.539 -16.282 -19.307  1.00  0.00    -0.650 OA
BRANCH   3   5
HETATM    5  C   UNL     1      26.359 -17.250 -17.154  1.00  0.00     0.110 C 
BRANCH   5   6
HETATM    6  C   UNL     1      27.461 -16.278 -16.710  1.00  0.00     0.014 C 
BRANCH   6   7
HETATM    7  C   UNL     1      27.125 -15.565 -15.393  1.00  0.00     0.027 C 
BRANCH   7   8
HETATM    8  C   UNL     1      26.405 -16.516 -14.470  1.00  0.00    -0.030 C 
HETATM    9  C   UNL     1      26.885 -16.975 -13.299  1.00  0.00    -0.027 C 
BRANCH   9  10
HETATM   10  C   UNL     1      28.214 -16.603 -12.693  1.00  0.00     0.053 C 
BRANCH  10  11
HETATM   11  C   UNL     1      28.040 -15.647 -11.533  1.00  0.00    -0.027 C 
HETATM   12  C   UNL     1      28.569 -14.414 -11.399  1.00  0.00    -0.027 C 
BRANCH  12  13
HETATM   13  C   UNL     1      29.446 -13.691 -12.389  1.00  0.00     0.053 C 
BRANCH  13  14
HETATM   14  C   UNL     1      28.625 -12.698 -13.178  1.00  0.00    -0.027 C 
HETATM   15  C   UNL     1      28.802 -12.412 -14.484  1.00  0.00    -0.027 C 
BRANCH  15  16
HETATM   16  C   UNL     1      29.863 -13.031 -15.357  1.00  0.00     0.053 C 
BRANCH  16  17
HETATM   17  C   UNL     1      31.194 -12.345 -15.179  1.00  0.00    -0.027 C 
HETATM   18  C   UNL     1      31.711 -11.469 -16.059  1.00  0.00    -0.030 C 
BRANCH  18  19
HETATM   19  C   UNL     1      31.049 -11.055 -17.349  1.00  0.00     0.027 C 
BRANCH  19  20
HETATM   20  C   UNL     1      31.534 -11.956 -18.489  1.00  0.00     0.004 C 
BRANCH  20  21
HETATM   21  C   UNL     1      30.361 -12.670 -19.170  1.00  0.00    -0.000 C 
BRANCH  21  22
HETATM   22  C   UNL     1      29.049 -11.913 -18.933  1.00  0.00    -0.005 C 
HETATM   23  C   UNL     1      27.953 -12.851 -18.438  1.00  0.00     0.005 C 
ENDBRANCH  21  22
ENDBRANCH  20  21
ENDBRANCH  19  20
ENDBRANCH  18  19
ENDBRANCH  16  17
ENDBRANCH  15  16
ENDBRANCH  13  14
ENDBRANCH  12  13
ENDBRANCH  10  11
ENDBRANCH   9  10
ENDBRANCH   7   8
ENDBRANCH   6   7
ENDBRANCH   5   6
ENDBRANCH   3   5
ENDBRANCH   1   3
TORSDOF 15
ENDMDL
MODEL 17
REMARK VINA RESULT:      -4.6      2.444      5.324
REMARK  15 active torsions:
REMARK  status: ('A' for Active; 'I' for Inactive)
REMARK    1  A    between atoms: O_1  and  C_22 
REMARK    2  A    between atoms: C_3  and  C_4 
REMARK    3  A    between atoms: C_3  and  C_5 
REMARK    4  A    between atoms: C_4  and  C_6 
REMARK    5  A    between atoms: C_5  and  C_7 
REMARK    6  A    between atoms: C_9  and  C_10 
REMARK    7  A    between atoms: C_9  and  C_13 
REMARK    8  A    between atoms: C_10  and  C_14 
REMARK    9  A    between atoms: C_11  and  C_12 
REMARK   10  A    between atoms: C_12  and  C_16 
REMARK   11  A    between atoms: C_13  and  C_22 
REMARK   12  A    between atoms: C_15  and  C_17 
REMARK   13  A    between atoms: C_15  and  C_20 
REMARK   14  A    between atoms: C_18  and  C_19 
REMARK   15  A    between atoms: C_18  and  C_21 
ROOT
HETATM    1  O   UNL     1      55.041  -7.572 -19.545  1.00  0.00    -0.776 OA
HETATM    2  H   UNL     1      55.066  -6.605 -19.536  1.00  0.00     0.167 HD
ENDROOT
BRANCH   1   3
HETATM    3  C   UNL     1      53.878  -8.244 -19.680  1.00  0.00     0.139 C 
HETATM    4  O   UNL     1      53.382  -8.395 -20.787  1.00  0.00    -0.650 OA
BRANCH   3   5
HETATM    5  C   UNL     1      53.188  -8.796 -18.463  1.00  0.00     0.110 C 
BRANCH   5   6
HETATM    6  C   UNL     1      53.419  -7.928 -17.217  1.00  0.00     0.014 C 
BRANCH   6   7
HETATM    7  C   UNL     1      52.147  -7.204 -16.756  1.00  0.00     0.027 C 
BRANCH   7   8
HETATM    8  C   UNL     1      52.098  -7.172 -15.249  1.00  0.00    -0.030 C 
HETATM    9  C   UNL     1      50.983  -7.016 -14.512  1.00  0.00    -0.027 C 
BRANCH   9  10
HETATM   10  C   UNL     1      49.585  -6.872 -15.060  1.00  0.00     0.053 C 
BRANCH  10  11
HETATM   11  C   UNL     1      49.413  -5.553 -15.780  1.00  0.00    -0.027 C 
HETATM   12  C   UNL     1      48.659  -5.306 -16.871  1.00  0.00    -0.027 C 
BRANCH  12  13
HETATM   13  C   UNL     1      47.792  -6.289 -17.616  1.00  0.00     0.053 C 
BRANCH  13  14
HETATM   14  C   UNL     1      48.639  -7.416 -18.160  1.00  0.00    -0.027 C 
HETATM   15  C   UNL     1      49.403  -7.344 -19.269  1.00  0.00    -0.027 C 
BRANCH  15  16
HETATM   16  C   UNL     1      49.515  -6.128 -20.151  1.00  0.00     0.053 C 
BRANCH  16  17
HETATM   17  C   UNL     1      50.737  -6.196 -21.033  1.00  0.00    -0.027 C 
HETATM   18  C   UNL     1      50.714  -6.597 -22.316  1.00  0.00    -0.030 C 
BRANCH  18  19
HETATM   19  C   UNL     1      49.479  -7.047 -23.055  1.00  0.00     0.027 C 
BRANCH  19  20
HETATM   20  C   UNL     1      49.865  -8.070 -24.127  1.00  0.00     0.004 C 
BRANCH  20  21
HETATM   21  C   UNL     1      51.212  -7.720 -24.769  1.00  0.00    -0.000 C 
BRANCH  21  22
HETATM   22  C   UNL     1      51.968  -8.990 -25.180  1.00  0.00    -0.005 C 
HETATM   23  C   UNL     1      53.009  -9.375 -24.134  1.00  0.00     0.005 C 
ENDBRANCH  21  22
ENDBRANCH  20  21
ENDBRANCH  19  20
ENDBRANCH  18  19
ENDBRANCH  16  17
ENDBRANCH  15  16
ENDBRANCH  13  14
ENDBRANCH  12  13
ENDBRANCH  10  11
ENDBRANCH   9  10
ENDBRANCH   7   8
ENDBRANCH   6   7
ENDBRANCH   5   6
ENDBRANCH   3   5
ENDBRANCH   1   3
TORSDOF 15
ENDMDL
MODEL 18
REMARK VINA RESULT:      -4.5     11.295     13.387
REMARK  15 active torsions:
REMARK  status: ('A' for Active; 'I' for Inactive)
REMARK    1  A    between atoms: O_1  and  C_22 
REMARK    2  A    between atoms: C_3  and  C_4 
REMARK    3  A    between atoms: C_3  and  C_5 
REMARK    4  A    between atoms: C_4  and  C_6 
REMARK    5  A    between atoms: C_5  and  C_7 
REMARK    6  A    between atoms: C_9  and  C_10 
REMARK    7  A    between atoms: C_9  and  C_13 
REMARK    8  A    between atoms: C_10  and  C_14 
REMARK    9  A    between atoms: C_11  and  C_12 
REMARK   10  A    between atoms: C_12  and  C_16 
REMARK   11  A    between atoms: C_13  and  C_22 
REMARK   12  A    between atoms: C_15  and  C_17 
REMARK   13  A    between atoms: C_15  and  C_20 
REMARK   14  A    between atoms: C_18  and  C_19 
REMARK   15  A    between atoms: C_18  and  C_21 
ROOT
HETATM    1  O   UNL     1      55.507  -0.128 -12.033  1.00  0.00    -0.776 OA
HETATM    2  H   UNL     1      55.593  -0.430 -12.948  1.00  0.00     0.167 HD
ENDROOT
BRANCH   1   3
HETATM    3  C   UNL     1      56.524   0.493 -11.400  1.00  0.00     0.139 C 
HETATM    4  O   UNL     1      56.752   0.251 -10.223  1.00  0.00    -0.650 OA
BRANCH   3   5
HETATM    5  C   UNL     1      57.368   1.492 -12.142  1.00  0.00     0.110 C 
BRANCH   5   6
HETATM    6  C   UNL     1      57.038   2.940 -11.751  1.00  0.00     0.014 C 
BRANCH   6   7
HETATM    7  C   UNL     1      57.522   3.958 -12.792  1.00  0.00     0.027 C 
BRANCH   7   8
HETATM    8  C   UNL     1      58.715   3.403 -13.529  1.00  0.00    -0.030 C 
HETATM    9  C   UNL     1      59.231   3.911 -14.664  1.00  0.00    -0.027 C 
BRANCH   9  10
HETATM   10  C   UNL     1      58.723   5.134 -15.385  1.00  0.00     0.053 C 
BRANCH  10  11
HETATM   11  C   UNL     1      57.559   4.794 -16.289  1.00  0.00    -0.027 C 
HETATM   12  C   UNL     1      57.609   4.265 -17.528  1.00  0.00    -0.027 C 
BRANCH  12  13
HETATM   13  C   UNL     1      58.845   3.868 -18.296  1.00  0.00     0.053 C 
BRANCH  13  14
HETATM   14  C   UNL     1      58.998   4.743 -19.517  1.00  0.00    -0.027 C 
HETATM   15  C   UNL     1      58.432   4.501 -20.717  1.00  0.00    -0.027 C 
BRANCH  15  16
HETATM   16  C   UNL     1      57.569   3.307 -21.030  1.00  0.00     0.053 C 
BRANCH  16  17
HETATM   17  C   UNL     1      58.403   2.084 -21.320  1.00  0.00    -0.027 C 
HETATM   18  C   UNL     1      58.154   0.867 -20.806  1.00  0.00    -0.030 C 
BRANCH  18  19
HETATM   19  C   UNL     1      57.023   0.548 -19.861  1.00  0.00     0.027 C 
BRANCH  19  20
HETATM   20  C   UNL     1      57.523   0.625 -18.415  1.00  0.00     0.004 C 
BRANCH  20  21
HETATM   21  C   UNL     1      56.355   0.731 -17.429  1.00  0.00    -0.000 C 
BRANCH  21  22
HETATM   22  C   UNL     1      56.865   0.853 -15.988  1.00  0.00    -0.005 C 
HETATM   23  C   UNL     1      58.357   0.546 -15.904  1.00  0.00     0.005 C 
ENDBRANCH  21  22
ENDBRANCH  20  21
ENDBRANCH  19  20
ENDBRANCH  18  19
ENDBRANCH  16  17
ENDBRANCH  15  16
ENDBRANCH  13  14
ENDBRANCH  12  13
ENDBRANCH  10  11
ENDBRANCH   9  10
ENDBRANCH   7   8
ENDBRANCH   6   7
ENDBRANCH   5   6
ENDBRANCH   3   5
ENDBRANCH   1   3
TORSDOF 15
ENDMDL
MODEL 19
REMARK VINA RESULT:      -4.5     10.032     13.533
REMARK  15 active torsions:
REMARK  status: ('A' for Active; 'I' for Inactive)
REMARK    1  A    between atoms: O_1  and  C_22 
REMARK    2  A    between atoms: C_3  and  C_4 
REMARK    3  A    between atoms: C_3  and  C_5 
REMARK    4  A    between atoms: C_4  and  C_6 
REMARK    5  A    between atoms: C_5  and  C_7 
REMARK    6  A    between atoms: C_9  and  C_10 
REMARK    7  A    between atoms: C_9  and  C_13 
REMARK    8  A    between atoms: C_10  and  C_14 
REMARK    9  A    between atoms: C_11  and  C_12 
REMARK   10  A    between atoms: C_12  and  C_16 
REMARK   11  A    between atoms: C_13  and  C_22 
REMARK   12  A    between atoms: C_15  and  C_17 
REMARK   13  A    between atoms: C_15  and  C_20 
REMARK   14  A    between atoms: C_18  and  C_19 
REMARK   15  A    between atoms: C_18  and  C_21 
ROOT
HETATM    1  O   UNL     1      48.269  -9.080  -7.554  1.00  0.00    -0.776 OA
HETATM    2  H   UNL     1      49.098  -9.022  -7.060  1.00  0.00     0.167 HD
ENDROOT
BRANCH   1   3
HETATM    3  C   UNL     1      47.878  -8.093  -8.389  1.00  0.00     0.139 C 
HETATM    4  O   UNL     1      46.760  -7.610  -8.285  1.00  0.00    -0.650 OA
BRANCH   3   5
HETATM    5  C   UNL     1      48.818  -7.599  -9.454  1.00  0.00     0.110 C 
BRANCH   5   6
HETATM    6  C   UNL     1      50.167  -7.147  -8.878  1.00  0.00     0.014 C 
BRANCH   6   7
HETATM    7  C   UNL     1      50.025  -6.000  -7.870  1.00  0.00     0.027 C 
BRANCH   7   8
HETATM    8  C   UNL     1      50.594  -6.420  -6.538  1.00  0.00    -0.030 C 
HETATM    9  C   UNL     1      49.956  -6.326  -5.356  1.00  0.00    -0.027 C 
BRANCH   9  10
HETATM   10  C   UNL     1      48.555  -5.806  -5.158  1.00  0.00     0.053 C 
BRANCH  10  11
HETATM   11  C   UNL     1      47.586  -6.934  -4.879  1.00  0.00    -0.027 C 
HETATM   12  C   UNL     1      47.055  -7.284  -3.690  1.00  0.00    -0.027 C 
BRANCH  12  13
HETATM   13  C   UNL     1      47.289  -6.615  -2.359  1.00  0.00     0.053 C 
BRANCH  13  14
HETATM   14  C   UNL     1      48.061  -7.538  -1.446  1.00  0.00    -0.027 C 
HETATM   15  C   UNL     1      48.071  -7.463  -0.099  1.00  0.00    -0.027 C 
BRANCH  15  16
HETATM   16  C   UNL     1      47.324  -6.430   0.704  1.00  0.00     0.053 C 
BRANCH  16  17
HETATM   17  C   UNL     1      46.142  -7.035   1.418  1.00  0.00    -0.027 C 
HETATM   18  C   UNL     1      44.892  -7.048   0.922  1.00  0.00    -0.030 C 
BRANCH  18  19
HETATM   19  C   UNL     1      44.487  -6.456  -0.404  1.00  0.00     0.027 C 
BRANCH  19  20
HETATM   20  C   UNL     1      44.042  -5.003  -0.205  1.00  0.00     0.004 C 
BRANCH  20  21
HETATM   21  C   UNL     1      44.700  -4.075  -1.231  1.00  0.00    -0.000 C 
BRANCH  21  22
HETATM   22  C   UNL     1      45.158  -2.769  -0.572  1.00  0.00    -0.005 C 
HETATM   23  C   UNL     1      46.404  -2.988   0.280  1.00  0.00     0.005 C 
ENDBRANCH  21  22
ENDBRANCH  20  21
ENDBRANCH  19  20
ENDBRANCH  18  19
ENDBRANCH  16  17
ENDBRANCH  15  16
ENDBRANCH  13  14
ENDBRANCH  12  13
ENDBRANCH  10  11
ENDBRANCH   9  10
ENDBRANCH   7   8
ENDBRANCH   6   7
ENDBRANCH   5   6
ENDBRANCH   3   5
ENDBRANCH   1   3
TORSDOF 15
ENDMDL
MODEL 20
REMARK VINA RESULT:      -4.5      4.523      7.618
REMARK  15 active torsions:
REMARK  status: ('A' for Active; 'I' for Inactive)
REMARK    1  A    between atoms: O_1  and  C_22 
REMARK    2  A    between atoms: C_3  and  C_4 
REMARK    3  A    between atoms: C_3  and  C_5 
REMARK    4  A    between atoms: C_4  and  C_6 
REMARK    5  A    between atoms: C_5  and  C_7 
REMARK    6  A    between atoms: C_9  and  C_10 
REMARK    7  A    between atoms: C_9  and  C_13 
REMARK    8  A    between atoms: C_10  and  C_14 
REMARK    9  A    between atoms: C_11  and  C_12 
REMARK   10  A    between atoms: C_12  and  C_16 
REMARK   11  A    between atoms: C_13  and  C_22 
REMARK   12  A    between atoms: C_15  and  C_17 
REMARK   13  A    between atoms: C_15  and  C_20 
REMARK   14  A    between atoms: C_18  and  C_19 
REMARK   15  A    between atoms: C_18  and  C_21 
ROOT
HETATM    1  O   UNL     1      45.746  -6.929 -11.382  1.00  0.00    -0.776 OA
HETATM    2  H   UNL     1      45.067  -7.212 -10.754  1.00  0.00     0.167 HD
ENDROOT
BRANCH   1   3
HETATM    3  C   UNL     1      46.963  -6.520 -10.965  1.00  0.00     0.139 C 
HETATM    4  O   UNL     1      47.115  -6.117  -9.822  1.00  0.00    -0.650 OA
BRANCH   3   5
HETATM    5  C   UNL     1      48.128  -6.552 -11.916  1.00  0.00     0.110 C 
BRANCH   5   6
HETATM    6  C   UNL     1      48.173  -7.845 -12.742  1.00  0.00     0.014 C 
BRANCH   6   7
HETATM    7  C   UNL     1      47.742  -7.632 -14.199  1.00  0.00     0.027 C 
BRANCH   7   8
HETATM    8  C   UNL     1      47.975  -6.195 -14.593  1.00  0.00    -0.030 C 
HETATM    9  C   UNL     1      49.058  -5.736 -15.249  1.00  0.00    -0.027 C 
BRANCH   9  10
HETATM   10  C   UNL     1      50.214  -6.578 -15.726  1.00  0.00     0.053 C 
BRANCH  10  11
HETATM   11  C   UNL     1      50.551  -6.279 -17.170  1.00  0.00    -0.027 C 
HETATM   12  C   UNL     1      49.987  -6.815 -18.272  1.00  0.00    -0.027 C 
BRANCH  12  13
HETATM   13  C   UNL     1      48.870  -7.827 -18.319  1.00  0.00     0.053 C 
BRANCH  13  14
HETATM   14  C   UNL     1      47.537  -7.122 -18.411  1.00  0.00    -0.027 C 
HETATM   15  C   UNL     1      46.960  -6.706 -19.556  1.00  0.00    -0.027 C 
BRANCH  15  16
HETATM   16  C   UNL     1      47.567  -6.866 -20.925  1.00  0.00     0.053 C 
BRANCH  16  17
HETATM   17  C   UNL     1      48.145  -5.566 -21.429  1.00  0.00    -0.027 C 
HETATM   18  C   UNL     1      49.417  -5.420 -21.837  1.00  0.00    -0.030 C 
BRANCH  18  19
HETATM   19  C   UNL     1      50.451  -6.518 -21.841  1.00  0.00     0.027 C 
BRANCH  19  20
HETATM   20  C   UNL     1      50.508  -7.166 -23.228  1.00  0.00     0.004 C 
BRANCH  20  21
HETATM   21  C   UNL     1      51.904  -7.726 -23.522  1.00  0.00    -0.000 C 
BRANCH  21  22
HETATM   22  C   UNL     1      51.934  -8.430 -24.883  1.00  0.00    -0.005 C 
HETATM   23  C   UNL     1      52.296  -9.905 -24.733  1.00  0.00     0.005 C 
ENDBRANCH  21  22
ENDBRANCH  20  21
ENDBRANCH  19  20
ENDBRANCH  18  19
ENDBRANCH  16  17
ENDBRANCH  15  16
ENDBRANCH  13  14
ENDBRANCH  12  13
ENDBRANCH  10  11
ENDBRANCH   9  10
ENDBRANCH   7   8
ENDBRANCH   6   7
ENDBRANCH   5   6
ENDBRANCH   3   5
ENDBRANCH   1   3
TORSDOF 15
ENDMDL
