MODEL 1
REMARK VINA RESULT:      -7.0      0.000      0.000
REMARK  2 active torsions:
REMARK  status: ('A' for Active; 'I' for Inactive)
REMARK    1  A    between atoms: N_3  and  C_15 
REMARK    2  A    between atoms: C_5  and  C_7 
ROOT
HETATM    1  S   UNL     1      26.798 -16.721 -13.561  1.00  0.00    -0.069 SA
HETATM    2  N   UNL     1      27.759 -14.379 -13.685  1.00  0.00    -0.344 N 
HETATM    3  C   UNL     1      27.515 -14.794 -14.970  1.00  0.00     0.052 A 
HETATM    4  C   UNL     1      27.384 -15.336 -12.769  1.00  0.00     0.087 A 
HETATM    5  C   UNL     1      26.982 -16.068 -15.085  1.00  0.00     0.034 A 
HETATM    6  C   UNL     1      27.773 -14.053 -16.137  1.00  0.00     0.031 A 
HETATM    7  C   UNL     1      26.681 -16.652 -16.312  1.00  0.00     0.028 A 
HETATM    8  C   UNL     1      28.406 -13.089 -13.411  1.00  0.00     0.157 C 
HETATM    9  C   UNL     1      26.931 -15.914 -17.484  1.00  0.00    -0.061 A 
HETATM   10  C   UNL     1      27.477 -14.617 -17.388  1.00  0.00     0.009 A 
HETATM   11  C   UNL     1      26.625 -16.493 -18.832  1.00  0.00     0.048 C 
ENDROOT
BRANCH   4  12
HETATM   12  C   UNL     1      27.414 -15.254 -11.273  1.00  0.00    -0.002 A 
HETATM   13  C   UNL     1      27.976 -14.170 -10.577  1.00  0.00     0.016 A 
HETATM   14  C   UNL     1      27.963 -14.124  -9.179  1.00  0.00     0.030 A 
HETATM   15  C   UNL     1      27.377 -15.157  -8.418  1.00  0.00     0.029 A 
HETATM   16  C   UNL     1      26.793 -16.232  -9.122  1.00  0.00     0.030 A 
HETATM   17  C   UNL     1      26.805 -16.273 -10.518  1.00  0.00     0.016 A 
BRANCH  15  18
HETATM   18  N   UNL     1      27.363 -15.111  -6.975  1.00  0.00    -0.390 N 
HETATM   19  C   UNL     1      26.926 -16.265  -6.200  1.00  0.00     0.149 C 
HETATM   20  C   UNL     1      27.785 -13.910  -6.267  1.00  0.00     0.149 C 
ENDBRANCH  15  18
ENDBRANCH   4  12
TORSDOF 2
ENDMDL
MODEL 2
REMARK VINA RESULT:      -6.9      1.662      7.957
REMARK  2 active torsions:
REMARK  status: ('A' for Active; 'I' for Inactive)
REMARK    1  A    between atoms: N_3  and  C_15 
REMARK    2  A    between atoms: C_5  and  C_7 
ROOT
HETATM    1  S   UNL     1      26.343 -16.719  -8.934  1.00  0.00    -0.069 SA
HETATM    2  N   UNL     1      27.778 -14.630  -8.912  1.00  0.00    -0.344 N 
HETATM    3  C   UNL     1      27.593 -15.017  -7.608  1.00  0.00     0.052 A 
HETATM    4  C   UNL     1      27.163 -15.498  -9.786  1.00  0.00     0.087 A 
HETATM    5  C   UNL     1      26.821 -16.156  -7.439  1.00  0.00     0.034 A 
HETATM    6  C   UNL     1      28.096 -14.357  -6.474  1.00  0.00     0.031 A 
HETATM    7  C   UNL     1      26.524 -16.686  -6.186  1.00  0.00     0.028 A 
HETATM    8  C   UNL     1      28.497 -13.393  -9.244  1.00  0.00     0.157 C 
HETATM    9  C   UNL     1      27.030 -16.034  -5.046  1.00  0.00    -0.061 A 
HETATM   10  C   UNL     1      27.814 -14.870  -5.198  1.00  0.00     0.009 A 
HETATM   11  C   UNL     1      26.742 -16.560  -3.672  1.00  0.00     0.048 C 
ENDROOT
BRANCH   4  12
HETATM   12  C   UNL     1      27.183 -15.479 -11.284  1.00  0.00    -0.002 A 
HETATM   13  C   UNL     1      27.407 -14.310 -12.032  1.00  0.00     0.016 A 
HETATM   14  C   UNL     1      27.440 -14.341 -13.429  1.00  0.00     0.030 A 
HETATM   15  C   UNL     1      27.258 -15.547 -14.139  1.00  0.00     0.029 A 
HETATM   16  C   UNL     1      27.056 -16.722 -13.384  1.00  0.00     0.030 A 
HETATM   17  C   UNL     1      27.029 -16.687 -11.987  1.00  0.00     0.016 A 
BRANCH  15  18
HETATM   18  N   UNL     1      27.290 -15.581 -15.582  1.00  0.00    -0.390 N 
HETATM   19  C   UNL     1      26.658 -16.671 -16.313  1.00  0.00     0.149 C 
HETATM   20  C   UNL     1      27.956 -14.526 -16.334  1.00  0.00     0.149 C 
ENDBRANCH  15  18
ENDBRANCH   4  12
TORSDOF 2
ENDMDL
MODEL 3
REMARK VINA RESULT:      -6.9      1.250      1.984
REMARK  2 active torsions:
REMARK  status: ('A' for Active; 'I' for Inactive)
REMARK    1  A    between atoms: N_3  and  C_15 
REMARK    2  A    between atoms: C_5  and  C_7 
ROOT
HETATM    1  S   UNL     1      26.724 -16.715 -11.736  1.00  0.00    -0.069 SA
HETATM    2  N   UNL     1      27.930 -14.487 -11.665  1.00  0.00    -0.344 N 
HETATM    3  C   UNL     1      27.712 -14.796 -12.984  1.00  0.00     0.052 A 
HETATM    4  C   UNL     1      27.410 -15.451 -10.830  1.00  0.00     0.087 A 
HETATM    5  C   UNL     1      27.055 -15.996 -13.204  1.00  0.00     0.034 A 
HETATM    6  C   UNL     1      28.107 -14.020 -14.087  1.00  0.00     0.031 A 
HETATM    7  C   UNL     1      26.759 -16.471 -14.479  1.00  0.00     0.028 A 
HETATM    8  C   UNL     1      28.694 -13.292 -11.278  1.00  0.00     0.157 C 
HETATM    9  C   UNL     1      27.146 -15.697 -15.588  1.00  0.00    -0.061 A 
HETATM   10  C   UNL     1      27.819 -14.473 -15.384  1.00  0.00     0.009 A 
HETATM   11  C   UNL     1      26.852 -16.158 -16.984  1.00  0.00     0.048 C 
ENDROOT
BRANCH   4  12
HETATM   12  C   UNL     1      27.370 -15.461  -9.332  1.00  0.00    -0.002 A 
HETATM   13  C   UNL     1      27.621 -14.319  -8.552  1.00  0.00     0.016 A 
HETATM   14  C   UNL     1      27.551 -14.368  -7.156  1.00  0.00     0.030 A 
HETATM   15  C   UNL     1      27.217 -15.561  -6.482  1.00  0.00     0.029 A 
HETATM   16  C   UNL     1      26.943 -16.699  -7.269  1.00  0.00     0.030 A 
HETATM   17  C   UNL     1      27.009 -16.645  -8.664  1.00  0.00     0.016 A 
BRANCH  15  18
HETATM   18  N   UNL     1      27.145 -15.614  -5.040  1.00  0.00    -0.390 N 
HETATM   19  C   UNL     1      26.365 -16.648  -4.373  1.00  0.00     0.149 C 
HETATM   20  C   UNL     1      27.850 -14.633  -4.226  1.00  0.00     0.149 C 
ENDBRANCH  15  18
ENDBRANCH   4  12
TORSDOF 2
ENDMDL
MODEL 4
REMARK VINA RESULT:      -6.8      1.984      8.087
REMARK  2 active torsions:
REMARK  status: ('A' for Active; 'I' for Inactive)
REMARK    1  A    between atoms: N_3  and  C_15 
REMARK    2  A    between atoms: C_5  and  C_7 
ROOT
HETATM    1  S   UNL     1      26.430 -16.709 -13.898  1.00  0.00    -0.069 SA
HETATM    2  N   UNL     1      27.721 -14.529 -13.861  1.00  0.00    -0.344 N 
HETATM    3  C   UNL     1      27.554 -14.931 -12.560  1.00  0.00     0.052 A 
HETATM    4  C   UNL     1      27.171 -15.433 -14.742  1.00  0.00     0.087 A 
HETATM    5  C   UNL     1      26.861 -16.120 -12.399  1.00  0.00     0.034 A 
HETATM    6  C   UNL     1      28.006 -14.242 -11.421  1.00  0.00     0.031 A 
HETATM    7  C   UNL     1      26.593 -16.673 -11.149  1.00  0.00     0.028 A 
HETATM    8  C   UNL     1      28.357 -13.244 -14.185  1.00  0.00     0.157 C 
HETATM    9  C   UNL     1      27.047 -15.992 -10.005  1.00  0.00    -0.061 A 
HETATM   10  C   UNL     1      27.752 -14.778 -10.149  1.00  0.00     0.009 A 
HETATM   11  C   UNL     1      26.788 -16.542  -8.634  1.00  0.00     0.048 C 
ENDROOT
BRANCH   4  12
HETATM   12  C   UNL     1      27.198 -15.407 -16.240  1.00  0.00    -0.002 A 
HETATM   13  C   UNL     1      27.636 -14.294 -16.979  1.00  0.00     0.016 A 
HETATM   14  C   UNL     1      27.666 -14.321 -18.376  1.00  0.00     0.030 A 
HETATM   15  C   UNL     1      27.267 -15.468 -19.095  1.00  0.00     0.029 A 
HETATM   16  C   UNL     1      26.849 -16.590 -18.349  1.00  0.00     0.030 A 
HETATM   17  C   UNL     1      26.825 -16.561 -16.952  1.00  0.00     0.016 A 
BRANCH  15  18
HETATM   18  N   UNL     1      27.296 -15.497 -20.538  1.00  0.00    -0.390 N 
HETATM   19  C   UNL     1      26.745 -16.630 -21.269  1.00  0.00     0.149 C 
HETATM   20  C   UNL     1      27.878 -14.394 -21.291  1.00  0.00     0.149 C 
ENDBRANCH  15  18
ENDBRANCH   4  12
TORSDOF 2
ENDMDL
MODEL 5
REMARK VINA RESULT:      -6.8      2.509      4.671
REMARK  2 active torsions:
REMARK  status: ('A' for Active; 'I' for Inactive)
REMARK    1  A    between atoms: N_3  and  C_15 
REMARK    2  A    between atoms: C_5  and  C_7 
ROOT
HETATM    1  S   UNL     1      26.786 -16.726  -8.910  1.00  0.00    -0.069 SA
HETATM    2  N   UNL     1      27.752 -14.385  -9.003  1.00  0.00    -0.344 N 
HETATM    3  C   UNL     1      27.515 -14.785 -10.294  1.00  0.00     0.052 A 
HETATM    4  C   UNL     1      27.370 -15.351  -8.099  1.00  0.00     0.087 A 
HETATM    5  C   UNL     1      26.980 -16.057 -10.425  1.00  0.00     0.034 A 
HETATM    6  C   UNL     1      27.782 -14.032 -11.450  1.00  0.00     0.031 A 
HETATM    7  C   UNL     1      26.686 -16.627 -11.660  1.00  0.00     0.028 A 
HETATM    8  C   UNL     1      28.399 -13.099  -8.710  1.00  0.00     0.157 C 
HETATM    9  C   UNL     1      26.944 -15.877 -12.823  1.00  0.00    -0.061 A 
HETATM   10  C   UNL     1      27.492 -14.581 -12.709  1.00  0.00     0.009 A 
HETATM   11  C   UNL     1      26.645 -16.440 -14.179  1.00  0.00     0.048 C 
ENDROOT
BRANCH   4  12
HETATM   12  C   UNL     1      27.390 -15.286  -6.602  1.00  0.00    -0.002 A 
HETATM   13  C   UNL     1      27.944 -14.206  -5.891  1.00  0.00     0.016 A 
HETATM   14  C   UNL     1      27.922 -14.176  -4.493  1.00  0.00     0.030 A 
HETATM   15  C   UNL     1      27.337 -15.220  -3.747  1.00  0.00     0.029 A 
HETATM   16  C   UNL     1      26.762 -16.290  -4.465  1.00  0.00     0.030 A 
HETATM   17  C   UNL     1      26.782 -16.315  -5.862  1.00  0.00     0.016 A 
BRANCH  15  18
HETATM   18  N   UNL     1      27.315 -15.190  -2.303  1.00  0.00    -0.390 N 
HETATM   19  C   UNL     1      26.911 -16.365  -1.543  1.00  0.00     0.149 C 
HETATM   20  C   UNL     1      27.694 -13.984  -1.580  1.00  0.00     0.149 C 
ENDBRANCH  15  18
ENDBRANCH   4  12
TORSDOF 2
ENDMDL
MODEL 6
REMARK VINA RESULT:      -6.7      1.642      7.840
REMARK  2 active torsions:
REMARK  status: ('A' for Active; 'I' for Inactive)
REMARK    1  A    between atoms: N_3  and  C_15 
REMARK    2  A    between atoms: C_5  and  C_7 
ROOT
HETATM    1  S   UNL     1      26.536 -16.620 -12.874  1.00  0.00    -0.069 SA
HETATM    2  N   UNL     1      27.753 -14.398 -12.819  1.00  0.00    -0.344 N 
HETATM    3  C   UNL     1      27.594 -14.813 -11.521  1.00  0.00     0.052 A 
HETATM    4  C   UNL     1      27.238 -15.315 -13.707  1.00  0.00     0.087 A 
HETATM    5  C   UNL     1      26.939 -16.025 -11.369  1.00  0.00     0.034 A 
HETATM    6  C   UNL     1      28.017 -14.115 -10.377  1.00  0.00     0.031 A 
HETATM    7  C   UNL     1      26.684 -16.593 -10.124  1.00  0.00     0.028 A 
HETATM    8  C   UNL     1      28.348 -13.091 -13.134  1.00  0.00     0.157 C 
HETATM    9  C   UNL     1      27.109 -15.904  -8.974  1.00  0.00    -0.061 A 
HETATM   10  C   UNL     1      27.774 -14.666  -9.108  1.00  0.00     0.009 A 
HETATM   11  C   UNL     1      26.862 -16.468  -7.608  1.00  0.00     0.048 C 
ENDROOT
BRANCH   4  12
HETATM   12  C   UNL     1      27.271 -15.281 -15.205  1.00  0.00    -0.002 A 
HETATM   13  C   UNL     1      27.740 -14.175 -15.935  1.00  0.00     0.016 A 
HETATM   14  C   UNL     1      27.775 -14.194 -17.333  1.00  0.00     0.030 A 
HETATM   15  C   UNL     1      27.350 -15.326 -18.060  1.00  0.00     0.029 A 
HETATM   16  C   UNL     1      26.901 -16.442 -17.323  1.00  0.00     0.030 A 
HETATM   17  C   UNL     1      26.872 -16.421 -15.926  1.00  0.00     0.016 A 
BRANCH  15  18
HETATM   18  N   UNL     1      27.384 -15.346 -19.504  1.00  0.00    -0.390 N 
HETATM   19  C   UNL     1      28.056 -14.287 -20.245  1.00  0.00     0.149 C 
HETATM   20  C   UNL     1      26.746 -16.425 -20.246  1.00  0.00     0.149 C 
ENDBRANCH  15  18
ENDBRANCH   4  12
TORSDOF 2
ENDMDL
MODEL 7
REMARK VINA RESULT:      -6.7      1.684      2.888
REMARK  2 active torsions:
REMARK  status: ('A' for Active; 'I' for Inactive)
REMARK    1  A    between atoms: N_3  and  C_15 
REMARK    2  A    between atoms: C_5  and  C_7 
ROOT
HETATM    1  S   UNL     1      26.660 -16.686 -16.438  1.00  0.00    -0.069 SA
HETATM    2  N   UNL     1      27.938 -14.500 -16.342  1.00  0.00    -0.344 N 
HETATM    3  C   UNL     1      27.721 -14.793 -17.665  1.00  0.00     0.052 A 
HETATM    4  C   UNL     1      27.379 -15.452 -15.518  1.00  0.00     0.087 A 
HETATM    5  C   UNL     1      27.026 -15.970 -17.898  1.00  0.00     0.034 A 
HETATM    6  C   UNL     1      28.150 -14.023 -18.759  1.00  0.00     0.031 A 
HETATM    7  C   UNL     1      26.725 -16.426 -19.179  1.00  0.00     0.028 A 
HETATM    8  C   UNL     1      28.737 -13.334 -15.942  1.00  0.00     0.157 C 
HETATM    9  C   UNL     1      27.146 -15.658 -20.279  1.00  0.00    -0.061 A 
HETATM   10  C   UNL     1      27.858 -14.459 -20.062  1.00  0.00     0.009 A 
HETATM   11  C   UNL     1      26.849 -16.100 -21.680  1.00  0.00     0.048 C 
ENDROOT
BRANCH   4  12
HETATM   12  C   UNL     1      27.327 -15.471 -14.021  1.00  0.00    -0.002 A 
HETATM   13  C   UNL     1      27.517 -14.321 -13.233  1.00  0.00     0.016 A 
HETATM   14  C   UNL     1      27.437 -14.380 -11.839  1.00  0.00     0.030 A 
HETATM   15  C   UNL     1      27.154 -15.590 -11.172  1.00  0.00     0.029 A 
HETATM   16  C   UNL     1      26.941 -16.736 -11.967  1.00  0.00     0.030 A 
HETATM   17  C   UNL     1      27.017 -16.673 -13.360  1.00  0.00     0.016 A 
BRANCH  15  18
HETATM   18  N   UNL     1      27.072 -15.652  -9.731  1.00  0.00    -0.390 N 
HETATM   19  C   UNL     1      27.779 -14.682  -8.906  1.00  0.00     0.149 C 
HETATM   20  C   UNL     1      26.283 -16.686  -9.076  1.00  0.00     0.149 C 
ENDBRANCH  15  18
ENDBRANCH   4  12
TORSDOF 2
ENDMDL
MODEL 8
REMARK VINA RESULT:      -6.7     33.599     35.514
REMARK  2 active torsions:
REMARK  status: ('A' for Active; 'I' for Inactive)
REMARK    1  A    between atoms: N_3  and  C_15 
REMARK    2  A    between atoms: C_5  and  C_7 
ROOT
HETATM    1  S   UNL     1      56.411   0.632 -12.290  1.00  0.00    -0.069 SA
HETATM    2  N   UNL     1      58.865   1.263 -12.323  1.00  0.00    -0.344 N 
HETATM    3  C   UNL     1      58.486   1.147 -11.010  1.00  0.00     0.052 A 
HETATM    4  C   UNL     1      57.820   0.978 -13.174  1.00  0.00     0.087 A 
HETATM    5  C   UNL     1      57.159   0.803 -10.810  1.00  0.00     0.034 A 
HETATM    6  C   UNL     1      59.314   1.359  -9.893  1.00  0.00     0.031 A 
HETATM    7  C   UNL     1      56.602   0.650  -9.543  1.00  0.00     0.028 A 
HETATM    8  C   UNL     1      60.216   1.710 -12.690  1.00  0.00     0.157 C 
HETATM    9  C   UNL     1      57.426   0.855  -8.421  1.00  0.00    -0.061 A 
HETATM   10  C   UNL     1      58.779   1.210  -8.604  1.00  0.00     0.009 A 
HETATM   11  C   UNL     1      56.880   0.703  -7.033  1.00  0.00     0.048 C 
ENDROOT
BRANCH   4  12
HETATM   12  C   UNL     1      57.829   0.919 -14.671  1.00  0.00    -0.002 A 
HETATM   13  C   UNL     1      56.683   0.629 -15.433  1.00  0.00     0.016 A 
HETATM   14  C   UNL     1      56.732   0.606 -16.830  1.00  0.00     0.030 A 
HETATM   15  C   UNL     1      57.927   0.882 -17.526  1.00  0.00     0.029 A 
HETATM   16  C   UNL     1      59.069   1.195 -16.759  1.00  0.00     0.030 A 
HETATM   17  C   UNL     1      59.016   1.221 -15.363  1.00  0.00     0.016 A 
BRANCH  15  18
HETATM   18  N   UNL     1      57.979   0.857 -18.969  1.00  0.00    -0.390 N 
HETATM   19  C   UNL     1      56.783   0.566 -19.749  1.00  0.00     0.149 C 
HETATM   20  C   UNL     1      59.226   1.122 -19.672  1.00  0.00     0.149 C 
ENDBRANCH  15  18
ENDBRANCH   4  12
TORSDOF 2
ENDMDL
MODEL 9
REMARK VINA RESULT:      -6.6      1.090      2.296
REMARK  2 active torsions:
REMARK  status: ('A' for Active; 'I' for Inactive)
REMARK    1  A    between atoms: N_3  and  C_15 
REMARK    2  A    between atoms: C_5  and  C_7 
ROOT
HETATM    1  S   UNL     1      28.039 -13.891 -13.330  1.00  0.00    -0.069 SA
HETATM    2  N   UNL     1      26.830 -16.117 -13.369  1.00  0.00    -0.344 N 
HETATM    3  C   UNL     1      27.096 -15.769 -14.670  1.00  0.00     0.052 A 
HETATM    4  C   UNL     1      27.320 -15.180 -12.488  1.00  0.00     0.087 A 
HETATM    5  C   UNL     1      27.761 -14.564 -14.830  1.00  0.00     0.034 A 
HETATM    6  C   UNL     1      26.741 -16.512 -15.809  1.00  0.00     0.031 A 
HETATM    7  C   UNL     1      28.104 -14.052 -16.078  1.00  0.00     0.028 A 
HETATM    8  C   UNL     1      26.052 -17.322 -13.047  1.00  0.00     0.157 C 
HETATM    9  C   UNL     1      27.757 -14.793 -17.224  1.00  0.00    -0.061 A 
HETATM   10  C   UNL     1      27.076 -16.020 -17.081  1.00  0.00     0.009 A 
HETATM   11  C   UNL     1      28.102 -14.290 -18.593  1.00  0.00     0.048 C 
ENDROOT
BRANCH   4  12
HETATM   12  C   UNL     1      27.305 -15.214 -10.990  1.00  0.00    -0.002 A 
HETATM   13  C   UNL     1      26.752 -16.277 -10.254  1.00  0.00     0.016 A 
HETATM   14  C   UNL     1      26.780 -16.279  -8.856  1.00  0.00     0.030 A 
HETATM   15  C   UNL     1      27.371 -15.221  -8.134  1.00  0.00     0.029 A 
HETATM   16  C   UNL     1      27.945 -14.167  -8.877  1.00  0.00     0.030 A 
HETATM   17  C   UNL     1      27.920 -14.171 -10.274  1.00  0.00     0.016 A 
BRANCH  15  18
HETATM   18  N   UNL     1      27.400 -15.221  -6.690  1.00  0.00    -0.390 N 
HETATM   19  C   UNL     1      27.969 -14.097  -5.959  1.00  0.00     0.149 C 
HETATM   20  C   UNL     1      26.861 -16.345  -5.938  1.00  0.00     0.149 C 
ENDBRANCH  15  18
ENDBRANCH   4  12
TORSDOF 2
ENDMDL
MODEL 10
REMARK VINA RESULT:      -6.6     11.434     12.178
REMARK  2 active torsions:
REMARK  status: ('A' for Active; 'I' for Inactive)
REMARK    1  A    between atoms: N_3  and  C_15 
REMARK    2  A    between atoms: C_5  and  C_7 
ROOT
HETATM    1  S   UNL     1      23.070 -24.968 -11.684  1.00  0.00    -0.069 SA
HETATM    2  N   UNL     1      23.206 -27.450 -11.192  1.00  0.00    -0.344 N 
HETATM    3  C   UNL     1      23.321 -27.292 -12.550  1.00  0.00     0.052 A 
HETATM    4  C   UNL     1      23.086 -26.236 -10.553  1.00  0.00     0.087 A 
HETATM    5  C   UNL     1      23.266 -25.980 -12.995  1.00  0.00     0.034 A 
HETATM    6  C   UNL     1      23.468 -28.327 -13.490  1.00  0.00     0.031 A 
HETATM    7  C   UNL     1      23.357 -25.636 -14.341  1.00  0.00     0.028 A 
HETATM    8  C   UNL     1      23.156 -28.786 -10.583  1.00  0.00     0.157 C 
HETATM    9  C   UNL     1      23.511 -26.666 -15.287  1.00  0.00    -0.061 A 
HETATM   10  C   UNL     1      23.565 -28.008 -14.854  1.00  0.00     0.009 A 
HETATM   11  C   UNL     1      23.615 -26.353 -16.749  1.00  0.00     0.048 C 
ENDROOT
BRANCH   4  12
HETATM   12  C   UNL     1      23.011 -25.963  -9.082  1.00  0.00    -0.002 A 
HETATM   13  C   UNL     1      24.057 -26.266  -8.193  1.00  0.00     0.016 A 
HETATM   14  C   UNL     1      23.954 -25.973  -6.829  1.00  0.00     0.030 A 
HETATM   15  C   UNL     1      22.802 -25.355  -6.299  1.00  0.00     0.029 A 
HETATM   16  C   UNL     1      21.764 -25.032  -7.198  1.00  0.00     0.030 A 
HETATM   17  C   UNL     1      21.873 -25.322  -8.561  1.00  0.00     0.016 A 
BRANCH  15  18
HETATM   18  N   UNL     1      22.694 -25.053  -4.891  1.00  0.00    -0.390 N 
HETATM   19  C   UNL     1      21.801 -24.000  -4.425  1.00  0.00     0.149 C 
HETATM   20  C   UNL     1      23.475 -25.794  -3.910  1.00  0.00     0.149 C 
ENDBRANCH  15  18
ENDBRANCH   4  12
TORSDOF 2
ENDMDL
MODEL 11
REMARK VINA RESULT:      -6.6      1.754      7.955
REMARK  2 active torsions:
REMARK  status: ('A' for Active; 'I' for Inactive)
REMARK    1  A    between atoms: N_3  and  C_15 
REMARK    2  A    between atoms: C_5  and  C_7 
ROOT
HETATM    1  S   UNL     1      28.214 -13.989 -12.018  1.00  0.00    -0.069 SA
HETATM    2  N   UNL     1      26.893 -16.144 -12.193  1.00  0.00    -0.344 N 
HETATM    3  C   UNL     1      27.000 -15.833 -10.861  1.00  0.00     0.052 A 
HETATM    4  C   UNL     1      27.499 -15.192 -12.982  1.00  0.00     0.087 A 
HETATM    5  C   UNL     1      27.701 -14.670 -10.585  1.00  0.00     0.034 A 
HETATM    6  C   UNL     1      26.482 -16.589  -9.796  1.00  0.00     0.031 A 
HETATM    7  C   UNL     1      27.914 -14.207  -9.289  1.00  0.00     0.028 A 
HETATM    8  C   UNL     1      26.256 -17.392 -12.635  1.00  0.00     0.157 C 
HETATM    9  C   UNL     1      27.393 -14.956  -8.217  1.00  0.00    -0.061 A 
HETATM   10  C   UNL     1      26.680 -16.145  -8.478  1.00  0.00     0.009 A 
HETATM   11  C   UNL     1      27.591 -14.504  -6.802  1.00  0.00     0.048 C 
ENDROOT
BRANCH   4  12
HETATM   12  C   UNL     1      27.547 -15.116 -14.478  1.00  0.00    -0.002 A 
HETATM   13  C   UNL     1      27.015 -16.114 -15.313  1.00  0.00     0.016 A 
HETATM   14  C   UNL     1      27.061 -15.992 -16.705  1.00  0.00     0.030 A 
HETATM   15  C   UNL     1      27.634 -14.860 -17.321  1.00  0.00     0.029 A 
HETATM   16  C   UNL     1      28.146 -13.850 -16.480  1.00  0.00     0.030 A 
HETATM   17  C   UNL     1      28.094 -13.974 -15.089  1.00  0.00     0.016 A 
BRANCH  15  18
HETATM   18  N   UNL     1      27.683 -14.734 -18.759  1.00  0.00    -0.390 N 
HETATM   19  C   UNL     1      27.298 -15.847 -19.616  1.00  0.00     0.149 C 
HETATM   20  C   UNL     1      28.120 -13.491 -19.380  1.00  0.00     0.149 C 
ENDBRANCH  15  18
ENDBRANCH   4  12
TORSDOF 2
ENDMDL
MODEL 12
REMARK VINA RESULT:      -6.6     11.147     14.230
REMARK  2 active torsions:
REMARK  status: ('A' for Active; 'I' for Inactive)
REMARK    1  A    between atoms: N_3  and  C_15 
REMARK    2  A    between atoms: C_5  and  C_7 
ROOT
HETATM    1  S   UNL     1      23.216 -27.454  -8.869  1.00  0.00    -0.069 SA
HETATM    2  N   UNL     1      22.392 -25.060  -8.960  1.00  0.00    -0.344 N 
HETATM    3  C   UNL     1      22.654 -25.356  -7.646  1.00  0.00     0.052 A 
HETATM    4  C   UNL     1      22.683 -26.125  -9.783  1.00  0.00     0.087 A 
HETATM    5  C   UNL     1      23.119 -26.641  -7.416  1.00  0.00     0.034 A 
HETATM    6  C   UNL     1      22.476 -24.488  -6.555  1.00  0.00     0.031 A 
HETATM    7  C   UNL     1      23.427 -27.116  -6.144  1.00  0.00     0.028 A 
HETATM    8  C   UNL     1      21.809 -23.768  -9.347  1.00  0.00     0.157 C 
HETATM    9  C   UNL     1      23.257 -26.250  -5.048  1.00  0.00    -0.061 A 
HETATM   10  C   UNL     1      22.781 -24.939  -5.261  1.00  0.00     0.009 A 
HETATM   11  C   UNL     1      23.574 -26.707  -3.656  1.00  0.00     0.048 C 
ENDROOT
BRANCH   4  12
HETATM   12  C   UNL     1      22.608 -26.192 -11.278  1.00  0.00    -0.002 A 
HETATM   13  C   UNL     1      21.411 -26.434 -11.975  1.00  0.00     0.016 A 
HETATM   14  C   UNL     1      21.383 -26.467 -13.372  1.00  0.00     0.030 A 
HETATM   15  C   UNL     1      22.551 -26.249 -14.133  1.00  0.00     0.029 A 
HETATM   16  C   UNL     1      23.745 -25.985 -13.430  1.00  0.00     0.030 A 
HETATM   17  C   UNL     1      23.769 -25.948 -12.034  1.00  0.00     0.016 A 
BRANCH  15  18
HETATM   18  N   UNL     1      22.523 -26.284 -15.577  1.00  0.00    -0.390 N 
HETATM   19  C   UNL     1      23.753 -26.148 -16.346  1.00  0.00     0.149 C 
HETATM   20  C   UNL     1      21.266 -26.455 -16.291  1.00  0.00     0.149 C 
ENDBRANCH  15  18
ENDBRANCH   4  12
TORSDOF 2
ENDMDL
MODEL 13
REMARK VINA RESULT:      -6.6     21.882     23.148
REMARK  2 active torsions:
REMARK  status: ('A' for Active; 'I' for Inactive)
REMARK    1  A    between atoms: N_3  and  C_15 
REMARK    2  A    between atoms: C_5  and  C_7 
ROOT
HETATM    1  S   UNL     1      50.167  -6.364 -15.584  1.00  0.00    -0.069 SA
HETATM    2  N   UNL     1      47.640  -6.464 -15.733  1.00  0.00    -0.344 N 
HETATM    3  C   UNL     1      48.129  -6.488 -17.014  1.00  0.00     0.052 A 
HETATM    4  C   UNL     1      48.658  -6.423 -14.806  1.00  0.00     0.087 A 
HETATM    5  C   UNL     1      49.511  -6.440 -17.115  1.00  0.00     0.034 A 
HETATM    6  C   UNL     1      47.359  -6.540 -18.189  1.00  0.00     0.031 A 
HETATM    7  C   UNL     1      50.178  -6.446 -18.337  1.00  0.00     0.028 A 
HETATM    8  C   UNL     1      46.194  -6.419 -15.470  1.00  0.00     0.157 C 
HETATM    9  C   UNL     1      49.414  -6.505 -19.517  1.00  0.00    -0.061 A 
HETATM   10  C   UNL     1      48.006  -6.551 -19.435  1.00  0.00     0.009 A 
HETATM   11  C   UNL     1      50.080  -6.516 -20.860  1.00  0.00     0.048 C 
ENDROOT
BRANCH   4  12
HETATM   12  C   UNL     1      48.557  -6.459 -13.312  1.00  0.00    -0.002 A 
HETATM   13  C   UNL     1      48.174  -7.608 -12.597  1.00  0.00     0.016 A 
HETATM   14  C   UNL     1      48.116  -7.603 -11.200  1.00  0.00     0.030 A 
HETATM   15  C   UNL     1      48.447  -6.450 -10.457  1.00  0.00     0.029 A 
HETATM   16  C   UNL     1      48.853  -5.306 -11.177  1.00  0.00     0.030 A 
HETATM   17  C   UNL     1      48.914  -5.316 -12.573  1.00  0.00     0.016 A 
BRANCH  15  18
HETATM   18  N   UNL     1      48.386  -6.444  -9.015  1.00  0.00    -0.390 N 
HETATM   19  C   UNL     1      47.329  -7.161  -8.314  1.00  0.00     0.149 C 
HETATM   20  C   UNL     1      49.378  -5.720  -8.233  1.00  0.00     0.149 C 
ENDBRANCH  15  18
ENDBRANCH   4  12
TORSDOF 2
ENDMDL
MODEL 14
REMARK VINA RESULT:      -6.6      2.619      7.753
REMARK  2 active torsions:
REMARK  status: ('A' for Active; 'I' for Inactive)
REMARK    1  A    between atoms: N_3  and  C_15 
REMARK    2  A    between atoms: C_5  and  C_7 
ROOT
HETATM    1  S   UNL     1      28.652 -14.128  -9.664  1.00  0.00    -0.069 SA
HETATM    2  N   UNL     1      27.202 -15.857 -10.817  1.00  0.00    -0.344 N 
HETATM    3  C   UNL     1      27.059 -16.035  -9.464  1.00  0.00     0.052 A 
HETATM    4  C   UNL     1      28.043 -14.804 -11.099  1.00  0.00     0.087 A 
HETATM    5  C   UNL     1      27.793 -15.161  -8.677  1.00  0.00     0.034 A 
HETATM    6  C   UNL     1      26.265 -17.014  -8.842  1.00  0.00     0.031 A 
HETATM    7  C   UNL     1      27.775 -15.203  -7.285  1.00  0.00     0.028 A 
HETATM    8  C   UNL     1      26.558 -16.765 -11.776  1.00  0.00     0.157 C 
HETATM    9  C   UNL     1      26.977 -16.176  -6.655  1.00  0.00    -0.061 A 
HETATM   10  C   UNL     1      26.226 -17.077  -7.440  1.00  0.00     0.009 A 
HETATM   11  C   UNL     1      26.919 -16.266  -5.160  1.00  0.00     0.048 C 
ENDROOT
BRANCH   4  12
HETATM   12  C   UNL     1      28.406 -14.237 -12.438  1.00  0.00    -0.002 A 
HETATM   13  C   UNL     1      27.782 -13.100 -12.982  1.00  0.00     0.016 A 
HETATM   14  C   UNL     1      28.167 -12.591 -14.226  1.00  0.00     0.030 A 
HETATM   15  C   UNL     1      29.201 -13.191 -14.974  1.00  0.00     0.029 A 
HETATM   16  C   UNL     1      29.840 -14.318 -14.414  1.00  0.00     0.030 A 
HETATM   17  C   UNL     1      29.456 -14.821 -13.169  1.00  0.00     0.016 A 
BRANCH  15  18
HETATM   18  N   UNL     1      29.600 -12.666 -16.259  1.00  0.00    -0.390 N 
HETATM   19  C   UNL     1      30.758 -11.791 -16.376  1.00  0.00     0.149 C 
HETATM   20  C   UNL     1      28.850 -13.001 -17.463  1.00  0.00     0.149 C 
ENDBRANCH  15  18
ENDBRANCH   4  12
TORSDOF 2
ENDMDL
MODEL 15
REMARK VINA RESULT:      -6.5     11.105     12.310
REMARK  2 active torsions:
REMARK  status: ('A' for Active; 'I' for Inactive)
REMARK    1  A    between atoms: N_3  and  C_15 
REMARK    2  A    between atoms: C_5  and  C_7 
ROOT
HETATM    1  S   UNL     1      22.152 -24.542 -10.330  1.00  0.00    -0.069 SA
HETATM    2  N   UNL     1      23.095 -26.893 -10.378  1.00  0.00    -0.344 N 
HETATM    3  C   UNL     1      23.013 -26.455 -11.676  1.00  0.00     0.052 A 
HETATM    4  C   UNL     1      22.675 -25.926  -9.493  1.00  0.00     0.087 A 
HETATM    5  C   UNL     1      22.511 -25.172 -11.831  1.00  0.00     0.034 A 
HETATM    6  C   UNL     1      23.372 -27.192 -12.818  1.00  0.00     0.031 A 
HETATM    7  C   UNL     1      22.350 -24.571 -13.076  1.00  0.00     0.028 A 
HETATM    8  C   UNL     1      23.522 -28.263 -10.063  1.00  0.00     0.157 C 
HETATM    9  C   UNL     1      22.713 -25.299 -14.223  1.00  0.00    -0.061 A 
HETATM   10  C   UNL     1      23.222 -26.609 -14.086  1.00  0.00     0.009 A 
HETATM   11  C   UNL     1      22.563 -24.701 -15.590  1.00  0.00     0.048 C 
ENDROOT
BRANCH   4  12
HETATM   12  C   UNL     1      22.674 -25.972  -7.996  1.00  0.00    -0.002 A 
HETATM   13  C   UNL     1      23.788 -25.609  -7.218  1.00  0.00     0.016 A 
HETATM   14  C   UNL     1      23.736 -25.646  -5.821  1.00  0.00     0.030 A 
HETATM   15  C   UNL     1      22.564 -26.039  -5.142  1.00  0.00     0.029 A 
HETATM   16  C   UNL     1      21.441 -26.381  -5.926  1.00  0.00     0.030 A 
HETATM   17  C   UNL     1      21.496 -26.338  -7.321  1.00  0.00     0.016 A 
BRANCH  15  18
HETATM   18  N   UNL     1      22.509 -26.078  -3.699  1.00  0.00    -0.390 N 
HETATM   19  C   UNL     1      23.721 -25.917  -2.907  1.00  0.00     0.149 C 
HETATM   20  C   UNL     1      21.243 -26.281  -3.010  1.00  0.00     0.149 C 
ENDBRANCH  15  18
ENDBRANCH   4  12
TORSDOF 2
ENDMDL
MODEL 16
REMARK VINA RESULT:      -6.5     21.850     22.916
REMARK  2 active torsions:
REMARK  status: ('A' for Active; 'I' for Inactive)
REMARK    1  A    between atoms: N_3  and  C_15 
REMARK    2  A    between atoms: C_5  and  C_7 
ROOT
HETATM    1  S   UNL     1      46.937  -6.804 -12.638  1.00  0.00    -0.069 SA
HETATM    2  N   UNL     1      49.457  -6.788 -12.902  1.00  0.00    -0.344 N 
HETATM    3  C   UNL     1      48.910  -6.717 -14.158  1.00  0.00     0.052 A 
HETATM    4  C   UNL     1      48.482  -6.816 -11.930  1.00  0.00     0.087 A 
HETATM    5  C   UNL     1      47.525  -6.715 -14.196  1.00  0.00     0.034 A 
HETATM    6  C   UNL     1      49.627  -6.663 -15.366  1.00  0.00     0.031 A 
HETATM    7  C   UNL     1      46.802  -6.656 -15.384  1.00  0.00     0.028 A 
HETATM    8  C   UNL     1      50.910  -6.890 -12.709  1.00  0.00     0.157 C 
HETATM    9  C   UNL     1      47.513  -6.596 -16.597  1.00  0.00    -0.061 A 
HETATM   10  C   UNL     1      48.924  -6.601 -16.580  1.00  0.00     0.009 A 
HETATM   11  C   UNL     1      46.787  -6.530 -17.907  1.00  0.00     0.048 C 
ENDROOT
BRANCH   4  12
HETATM   12  C   UNL     1      48.652  -6.820 -10.442  1.00  0.00    -0.002 A 
HETATM   13  C   UNL     1      49.100  -5.699  -9.719  1.00  0.00     0.016 A 
HETATM   14  C   UNL     1      49.223  -5.740  -8.327  1.00  0.00     0.030 A 
HETATM   15  C   UNL     1      48.894  -6.901  -7.596  1.00  0.00     0.029 A 
HETATM   16  C   UNL     1      48.424  -8.015  -8.323  1.00  0.00     0.030 A 
HETATM   17  C   UNL     1      48.298  -7.970  -9.714  1.00  0.00     0.016 A 
BRANCH  15  18
HETATM   18  N   UNL     1      49.022  -6.944  -6.159  1.00  0.00    -0.390 N 
HETATM   19  C   UNL     1      50.019  -6.128  -5.478  1.00  0.00     0.149 C 
HETATM   20  C   UNL     1      48.158  -7.804  -5.362  1.00  0.00     0.149 C 
ENDBRANCH  15  18
ENDBRANCH   4  12
TORSDOF 2
ENDMDL
MODEL 17
REMARK VINA RESULT:      -6.5     22.092     24.192
REMARK  2 active torsions:
REMARK  status: ('A' for Active; 'I' for Inactive)
REMARK    1  A    between atoms: N_3  and  C_15 
REMARK    2  A    between atoms: C_5  and  C_7 
ROOT
HETATM    1  S   UNL     1      46.995  -6.543 -10.944  1.00  0.00    -0.069 SA
HETATM    2  N   UNL     1      49.527  -6.559 -10.850  1.00  0.00    -0.344 N 
HETATM    3  C   UNL     1      49.066  -6.589  -9.558  1.00  0.00     0.052 A 
HETATM    4  C   UNL     1      48.489  -6.559 -11.755  1.00  0.00     0.087 A 
HETATM    5  C   UNL     1      47.686  -6.585  -9.428  1.00  0.00     0.034 A 
HETATM    6  C   UNL     1      49.863  -6.607  -8.401  1.00  0.00     0.031 A 
HETATM    7  C   UNL     1      47.046  -6.604  -8.192  1.00  0.00     0.028 A 
HETATM    8  C   UNL     1      50.964  -6.469 -11.145  1.00  0.00     0.157 C 
HETATM    9  C   UNL     1      47.837  -6.628  -7.028  1.00  0.00    -0.061 A 
HETATM   10  C   UNL     1      49.243  -6.629  -7.141  1.00  0.00     0.009 A 
HETATM   11  C   UNL     1      47.201  -6.650  -5.671  1.00  0.00     0.048 C 
ENDROOT
BRANCH   4  12
HETATM   12  C   UNL     1      48.558  -6.603 -13.251  1.00  0.00    -0.002 A 
HETATM   13  C   UNL     1      49.111  -5.565 -14.022  1.00  0.00     0.016 A 
HETATM   14  C   UNL     1      49.175  -5.657 -15.416  1.00  0.00     0.030 A 
HETATM   15  C   UNL     1      48.698  -6.796 -16.097  1.00  0.00     0.029 A 
HETATM   16  C   UNL     1      48.164  -7.844 -15.318  1.00  0.00     0.030 A 
HETATM   17  C   UNL     1      48.105  -7.751 -13.925  1.00  0.00     0.016 A 
BRANCH  15  18
HETATM   18  N   UNL     1      48.763  -6.892 -17.537  1.00  0.00    -0.390 N 
HETATM   19  C   UNL     1      49.172  -5.746 -18.339  1.00  0.00     0.149 C 
HETATM   20  C   UNL     1      48.420  -8.134 -18.215  1.00  0.00     0.149 C 
ENDBRANCH  15  18
ENDBRANCH   4  12
TORSDOF 2
ENDMDL
MODEL 18
REMARK VINA RESULT:      -6.5      1.068      1.817
REMARK  2 active torsions:
REMARK  status: ('A' for Active; 'I' for Inactive)
REMARK    1  A    between atoms: N_3  and  C_15 
REMARK    2  A    between atoms: C_5  and  C_7 
ROOT
HETATM    1  S   UNL     1      28.161 -13.898 -13.698  1.00  0.00    -0.069 SA
HETATM    2  N   UNL     1      26.845 -16.061 -13.594  1.00  0.00    -0.344 N 
HETATM    3  C   UNL     1      27.082 -15.786 -14.917  1.00  0.00     0.052 A 
HETATM    4  C   UNL     1      27.410 -15.111 -12.773  1.00  0.00     0.087 A 
HETATM    5  C   UNL     1      27.798 -14.624 -15.155  1.00  0.00     0.034 A 
HETATM    6  C   UNL     1      26.652 -16.560 -16.008  1.00  0.00     0.031 A 
HETATM    7  C   UNL     1      28.121 -14.186 -16.436  1.00  0.00     0.028 A 
HETATM    8  C   UNL     1      26.022 -17.210 -13.190  1.00  0.00     0.157 C 
HETATM    9  C   UNL     1      27.699 -14.959 -17.534  1.00  0.00    -0.061 A 
HETATM   10  C   UNL     1      26.965 -16.143 -17.312  1.00  0.00     0.009 A 
HETATM   11  C   UNL     1      28.020 -14.536 -18.936  1.00  0.00     0.048 C 
ENDROOT
BRANCH   4  12
HETATM   12  C   UNL     1      27.447 -15.077 -11.276  1.00  0.00    -0.002 A 
HETATM   13  C   UNL     1      27.943 -13.982 -10.546  1.00  0.00     0.016 A 
HETATM   14  C   UNL     1      27.938 -13.983  -9.148  1.00  0.00     0.030 A 
HETATM   15  C   UNL     1      27.426 -15.077  -8.419  1.00  0.00     0.029 A 
HETATM   16  C   UNL     1      26.908 -16.164  -9.155  1.00  0.00     0.030 A 
HETATM   17  C   UNL     1      26.911 -16.158 -10.552  1.00  0.00     0.016 A 
BRANCH  15  18
HETATM   18  N   UNL     1      27.421 -15.080  -6.975  1.00  0.00    -0.390 N 
HETATM   19  C   UNL     1      26.982 -16.257  -6.237  1.00  0.00     0.149 C 
HETATM   20  C   UNL     1      27.853 -13.906  -6.229  1.00  0.00     0.149 C 
ENDBRANCH  15  18
ENDBRANCH   4  12
TORSDOF 2
ENDMDL
MODEL 19
REMARK VINA RESULT:      -6.4     11.179     14.448
REMARK  2 active torsions:
REMARK  status: ('A' for Active; 'I' for Inactive)
REMARK    1  A    between atoms: N_3  and  C_15 
REMARK    2  A    between atoms: C_5  and  C_7 
ROOT
HETATM    1  S   UNL     1      22.361 -24.553  -7.985  1.00  0.00    -0.069 SA
HETATM    2  N   UNL     1      23.185 -26.949  -8.014  1.00  0.00    -0.344 N 
HETATM    3  C   UNL     1      23.034 -26.581  -6.701  1.00  0.00     0.052 A 
HETATM    4  C   UNL     1      22.821 -25.931  -8.866  1.00  0.00     0.087 A 
HETATM    5  C   UNL     1      22.585 -25.285  -6.503  1.00  0.00     0.034 A 
HETATM    6  C   UNL     1      23.307 -27.388  -5.583  1.00  0.00     0.031 A 
HETATM    7  C   UNL     1      22.384 -24.741  -5.238  1.00  0.00     0.028 A 
HETATM    8  C   UNL     1      23.738 -28.261  -8.378  1.00  0.00     0.157 C 
HETATM    9  C   UNL     1      22.649 -25.545  -4.114  1.00  0.00    -0.061 A 
HETATM   10  C   UNL     1      23.111 -26.866  -4.294  1.00  0.00     0.009 A 
HETATM   11  C   UNL     1      22.449 -25.012  -2.727  1.00  0.00     0.048 C 
ENDROOT
BRANCH   4  12
HETATM   12  C   UNL     1      22.768 -25.946 -10.364  1.00  0.00    -0.002 A 
HETATM   13  C   UNL     1      21.576 -26.135 -11.086  1.00  0.00     0.016 A 
HETATM   14  C   UNL     1      21.569 -26.120 -12.484  1.00  0.00     0.030 A 
HETATM   15  C   UNL     1      22.753 -25.904 -13.220  1.00  0.00     0.029 A 
HETATM   16  C   UNL     1      23.943 -25.692 -12.491  1.00  0.00     0.030 A 
HETATM   17  C   UNL     1      23.945 -25.704 -11.094  1.00  0.00     0.016 A 
BRANCH  15  18
HETATM   18  N   UNL     1      22.747 -25.889 -14.664  1.00  0.00    -0.390 N 
HETATM   19  C   UNL     1      23.169 -27.060 -15.420  1.00  0.00     0.149 C 
HETATM   20  C   UNL     1      22.319 -24.702 -15.392  1.00  0.00     0.149 C 
ENDBRANCH  15  18
ENDBRANCH   4  12
TORSDOF 2
ENDMDL
MODEL 20
REMARK VINA RESULT:      -6.4     21.806     23.058
REMARK  2 active torsions:
REMARK  status: ('A' for Active; 'I' for Inactive)
REMARK    1  A    between atoms: N_3  and  C_15 
REMARK    2  A    between atoms: C_5  and  C_7 
ROOT
HETATM    1  S   UNL     1      50.049  -6.367 -11.337  1.00  0.00    -0.069 SA
HETATM    2  N   UNL     1      47.522  -6.513 -11.452  1.00  0.00    -0.344 N 
HETATM    3  C   UNL     1      47.994  -6.510 -12.740  1.00  0.00     0.052 A 
HETATM    4  C   UNL     1      48.552  -6.466 -10.539  1.00  0.00     0.087 A 
HETATM    5  C   UNL     1      49.373  -6.434 -12.859  1.00  0.00     0.034 A 
HETATM    6  C   UNL     1      47.208  -6.561 -13.904  1.00  0.00     0.031 A 
HETATM    7  C   UNL     1      50.023  -6.411 -14.090  1.00  0.00     0.028 A 
HETATM    8  C   UNL     1      46.080  -6.500 -11.169  1.00  0.00     0.157 C 
HETATM    9  C   UNL     1      49.243  -6.467 -15.260  1.00  0.00    -0.061 A 
HETATM   10  C   UNL     1      47.838  -6.541 -15.159  1.00  0.00     0.009 A 
HETATM   11  C   UNL     1      49.890  -6.447 -16.612  1.00  0.00     0.048 C 
ENDROOT
BRANCH   4  12
HETATM   12  C   UNL     1      48.473  -6.524  -9.044  1.00  0.00    -0.002 A 
HETATM   13  C   UNL     1      48.070  -7.674  -8.342  1.00  0.00     0.016 A 
HETATM   14  C   UNL     1      48.032  -7.692  -6.945  1.00  0.00     0.030 A 
HETATM   15  C   UNL     1      48.407  -6.562  -6.188  1.00  0.00     0.029 A 
HETATM   16  C   UNL     1      48.833  -5.417  -6.895  1.00  0.00     0.030 A 
HETATM   17  C   UNL     1      48.873  -5.405  -8.292  1.00  0.00     0.016 A 
BRANCH  15  18
HETATM   18  N   UNL     1      48.367  -6.578  -4.745  1.00  0.00    -0.390 N 
HETATM   19  C   UNL     1      47.157  -6.980  -4.040  1.00  0.00     0.149 C 
HETATM   20  C   UNL     1      49.536  -6.192  -3.966  1.00  0.00     0.149 C 
ENDBRANCH  15  18
ENDBRANCH   4  12
TORSDOF 2
ENDMDL
