MODEL 1
REMARK VINA RESULT:      -6.2      0.000      0.000
REMARK  15 active torsions:
REMARK  status: ('A' for Active; 'I' for Inactive)
REMARK    1  A    between atoms: O_1  and  C_23 
REMARK    2  A    between atoms: C_3  and  C_7 
REMARK    3  A    between atoms: C_3  and  C_8 
REMARK    4  A    between atoms: C_4  and  C_10 
REMARK    5  A    between atoms: C_4  and  C_11 
REMARK    6  A    between atoms: C_5  and  C_12 
REMARK    7  A    between atoms: C_5  and  C_13 
REMARK    8  A    between atoms: C_6  and  C_15 
REMARK    9  A    between atoms: C_6  and  C_16 
REMARK   10  A    between atoms: C_7  and  C_23 
REMARK   11  A    between atoms: C_9  and  C_17 
REMARK   12  A    between atoms: C_9  and  C_18 
REMARK   13  A    between atoms: C_14  and  C_19 
REMARK   14  A    between atoms: C_14  and  C_20 
REMARK   15  A    between atoms: C_21  and  C_22 
ROOT
HETATM    1  O   UNL     1      48.491  -3.350 -11.589  1.00  0.00    -0.776 OA
HETATM    2  H   UNL     1      49.249  -2.752 -11.648  1.00  0.00     0.167 HD
ENDROOT
BRANCH   1   3
HETATM    3  C   UNL     1      48.654  -4.679 -11.420  1.00  0.00     0.139 C 
HETATM    4  O   UNL     1      48.519  -5.176 -10.311  1.00  0.00    -0.650 OA
BRANCH   3   5
HETATM    5  C   UNL     1      48.999  -5.545 -12.598  1.00  0.00     0.113 C 
BRANCH   5   6
HETATM    6  C   UNL     1      47.946  -6.641 -12.798  1.00  0.00     0.037 C 
BRANCH   6   7
HETATM    7  C   UNL     1      48.447  -7.691 -13.761  1.00  0.00    -0.030 C 
HETATM    8  C   UNL     1      48.370  -7.659 -15.109  1.00  0.00    -0.027 C 
BRANCH   8   9
HETATM    9  C   UNL     1      47.768  -6.571 -15.972  1.00  0.00     0.053 C 
BRANCH   9  10
HETATM   10  C   UNL     1      48.823  -5.588 -16.411  1.00  0.00    -0.027 C 
HETATM   11  C   UNL     1      49.197  -5.351 -17.681  1.00  0.00    -0.027 C 
BRANCH  11  12
HETATM   12  C   UNL     1      48.588  -5.985 -18.904  1.00  0.00     0.053 C 
BRANCH  12  13
HETATM   13  C   UNL     1      49.130  -5.355 -20.163  1.00  0.00    -0.027 C 
HETATM   14  C   UNL     1      50.191  -5.774 -20.878  1.00  0.00    -0.027 C 
BRANCH  14  15
HETATM   15  C   UNL     1      51.089  -6.933 -20.536  1.00  0.00     0.053 C 
BRANCH  15  16
HETATM   16  C   UNL     1      52.137  -7.065 -21.619  1.00  0.00    -0.027 C 
HETATM   17  C   UNL     1      53.466  -7.230 -21.470  1.00  0.00    -0.027 C 
BRANCH  17  18
HETATM   18  C   UNL     1      54.229  -7.343 -20.177  1.00  0.00     0.053 C 
BRANCH  18  19
HETATM   19  C   UNL     1      53.865  -8.617 -19.451  1.00  0.00    -0.027 C 
HETATM   20  C   UNL     1      53.333  -8.736 -18.218  1.00  0.00    -0.027 C 
BRANCH  20  21
HETATM   21  C   UNL     1      52.925  -7.618 -17.291  1.00  0.00     0.053 C 
BRANCH  21  22
HETATM   22  C   UNL     1      54.083  -7.192 -16.419  1.00  0.00    -0.027 C 
HETATM   23  C   UNL     1      54.375  -7.631 -15.180  1.00  0.00    -0.031 C 
BRANCH  23  24
HETATM   24  C   UNL     1      53.594  -8.638 -14.377  1.00  0.00     0.022 C 
HETATM   25  C   UNL     1      52.474  -7.997 -13.568  1.00  0.00     0.009 C 
ENDBRANCH  23  24
ENDBRANCH  21  22
ENDBRANCH  20  21
ENDBRANCH  18  19
ENDBRANCH  17  18
ENDBRANCH  15  16
ENDBRANCH  14  15
ENDBRANCH  12  13
ENDBRANCH  11  12
ENDBRANCH   9  10
ENDBRANCH   8   9
ENDBRANCH   6   7
ENDBRANCH   5   6
ENDBRANCH   3   5
ENDBRANCH   1   3
TORSDOF 15
ENDMDL
MODEL 2
REMARK VINA RESULT:      -5.7      4.103      7.462
REMARK  15 active torsions:
REMARK  status: ('A' for Active; 'I' for Inactive)
REMARK    1  A    between atoms: O_1  and  C_23 
REMARK    2  A    between atoms: C_3  and  C_7 
REMARK    3  A    between atoms: C_3  and  C_8 
REMARK    4  A    between atoms: C_4  and  C_10 
REMARK    5  A    between atoms: C_4  and  C_11 
REMARK    6  A    between atoms: C_5  and  C_12 
REMARK    7  A    between atoms: C_5  and  C_13 
REMARK    8  A    between atoms: C_6  and  C_15 
REMARK    9  A    between atoms: C_6  and  C_16 
REMARK   10  A    between atoms: C_7  and  C_23 
REMARK   11  A    between atoms: C_9  and  C_17 
REMARK   12  A    between atoms: C_9  and  C_18 
REMARK   13  A    between atoms: C_14  and  C_19 
REMARK   14  A    between atoms: C_14  and  C_20 
REMARK   15  A    between atoms: C_21  and  C_22 
ROOT
HETATM    1  O   UNL     1      54.647  -6.716 -20.670  1.00  0.00    -0.776 OA
HETATM    2  H   UNL     1      55.276  -6.502 -19.967  1.00  0.00     0.167 HD
ENDROOT
BRANCH   1   3
HETATM    3  C   UNL     1      53.981  -7.890 -20.686  1.00  0.00     0.139 C 
HETATM    4  O   UNL     1      53.469  -8.290 -21.722  1.00  0.00    -0.650 OA
BRANCH   3   5
HETATM    5  C   UNL     1      53.875  -8.705 -19.428  1.00  0.00     0.113 C 
BRANCH   5   6
HETATM    6  C   UNL     1      52.850  -8.095 -18.466  1.00  0.00     0.037 C 
BRANCH   6   7
HETATM    7  C   UNL     1      53.531  -7.568 -17.226  1.00  0.00    -0.030 C 
HETATM    8  C   UNL     1      52.937  -7.131 -16.095  1.00  0.00    -0.027 C 
BRANCH   8   9
HETATM    9  C   UNL     1      51.453  -7.065 -15.801  1.00  0.00     0.053 C 
BRANCH   9  10
HETATM   10  C   UNL     1      50.809  -5.922 -16.543  1.00  0.00    -0.027 C 
HETATM   11  C   UNL     1      49.516  -5.851 -16.906  1.00  0.00    -0.027 C 
BRANCH  11  12
HETATM   12  C   UNL     1      48.460  -6.876 -16.586  1.00  0.00     0.053 C 
BRANCH  12  13
HETATM   13  C   UNL     1      48.338  -7.888 -17.698  1.00  0.00    -0.027 C 
HETATM   14  C   UNL     1      47.562  -7.787 -18.793  1.00  0.00    -0.027 C 
BRANCH  14  15
HETATM   15  C   UNL     1      46.617  -6.659 -19.110  1.00  0.00     0.053 C 
BRANCH  15  16
HETATM   16  C   UNL     1      46.635  -6.422 -20.604  1.00  0.00    -0.027 C 
HETATM   17  C   UNL     1      47.537  -5.722 -21.321  1.00  0.00    -0.027 C 
BRANCH  17  18
HETATM   18  C   UNL     1      48.763  -5.019 -20.802  1.00  0.00     0.053 C 
BRANCH  18  19
HETATM   19  C   UNL     1      49.944  -5.961 -20.771  1.00  0.00    -0.027 C 
HETATM   20  C   UNL     1      50.535  -6.572 -21.818  1.00  0.00    -0.027 C 
BRANCH  20  21
HETATM   21  C   UNL     1      50.188  -6.414 -23.278  1.00  0.00     0.053 C 
BRANCH  21  22
HETATM   22  C   UNL     1      50.246  -7.745 -23.991  1.00  0.00    -0.027 C 
HETATM   23  C   UNL     1      49.264  -8.662 -24.088  1.00  0.00    -0.031 C 
BRANCH  23  24
HETATM   24  C   UNL     1      47.887  -8.569 -23.484  1.00  0.00     0.022 C 
HETATM   25  C   UNL     1      46.911  -7.809 -24.373  1.00  0.00     0.009 C 
ENDBRANCH  23  24
ENDBRANCH  21  22
ENDBRANCH  20  21
ENDBRANCH  18  19
ENDBRANCH  17  18
ENDBRANCH  15  16
ENDBRANCH  14  15
ENDBRANCH  12  13
ENDBRANCH  11  12
ENDBRANCH   9  10
ENDBRANCH   8   9
ENDBRANCH   6   7
ENDBRANCH   5   6
ENDBRANCH   3   5
ENDBRANCH   1   3
TORSDOF 15
ENDMDL
MODEL 3
REMARK VINA RESULT:      -5.5      3.662      6.935
REMARK  15 active torsions:
REMARK  status: ('A' for Active; 'I' for Inactive)
REMARK    1  A    between atoms: O_1  and  C_23 
REMARK    2  A    between atoms: C_3  and  C_7 
REMARK    3  A    between atoms: C_3  and  C_8 
REMARK    4  A    between atoms: C_4  and  C_10 
REMARK    5  A    between atoms: C_4  and  C_11 
REMARK    6  A    between atoms: C_5  and  C_12 
REMARK    7  A    between atoms: C_5  and  C_13 
REMARK    8  A    between atoms: C_6  and  C_15 
REMARK    9  A    between atoms: C_6  and  C_16 
REMARK   10  A    between atoms: C_7  and  C_23 
REMARK   11  A    between atoms: C_9  and  C_17 
REMARK   12  A    between atoms: C_9  and  C_18 
REMARK   13  A    between atoms: C_14  and  C_19 
REMARK   14  A    between atoms: C_14  and  C_20 
REMARK   15  A    between atoms: C_21  and  C_22 
ROOT
HETATM    1  O   UNL     1      46.607  -7.165 -21.920  1.00  0.00    -0.776 OA
HETATM    2  H   UNL     1      46.257  -7.724 -22.627  1.00  0.00     0.167 HD
ENDROOT
BRANCH   1   3
HETATM    3  C   UNL     1      47.721  -6.423 -22.095  1.00  0.00     0.139 C 
HETATM    4  O   UNL     1      47.655  -5.348 -22.675  1.00  0.00    -0.650 OA
BRANCH   3   5
HETATM    5  C   UNL     1      49.038  -6.919 -21.573  1.00  0.00     0.113 C 
BRANCH   5   6
HETATM    6  C   UNL     1      49.322  -6.353 -20.177  1.00  0.00     0.037 C 
BRANCH   6   7
HETATM    7  C   UNL     1      48.842  -7.305 -19.108  1.00  0.00    -0.030 C 
HETATM    8  C   UNL     1      49.275  -7.378 -17.831  1.00  0.00    -0.027 C 
BRANCH   8   9
HETATM    9  C   UNL     1      50.337  -6.528 -17.168  1.00  0.00     0.053 C 
BRANCH   9  10
HETATM   10  C   UNL     1      49.735  -5.653 -16.098  1.00  0.00    -0.027 C 
HETATM   11  C   UNL     1      49.522  -6.011 -14.819  1.00  0.00    -0.027 C 
BRANCH  11  12
HETATM   12  C   UNL     1      49.900  -7.334 -14.207  1.00  0.00     0.053 C 
BRANCH  12  13
HETATM   13  C   UNL     1      50.966  -7.155 -13.154  1.00  0.00    -0.027 C 
HETATM   14  C   UNL     1      52.223  -7.633 -13.195  1.00  0.00    -0.027 C 
BRANCH  14  15
HETATM   15  C   UNL     1      52.811  -8.492 -14.283  1.00  0.00     0.053 C 
BRANCH  15  16
HETATM   16  C   UNL     1      54.091  -7.847 -14.766  1.00  0.00    -0.027 C 
HETATM   17  C   UNL     1      54.361  -7.359 -15.993  1.00  0.00    -0.027 C 
BRANCH  17  18
HETATM   18  C   UNL     1      53.437  -7.322 -17.181  1.00  0.00     0.053 C 
BRANCH  18  19
HETATM   19  C   UNL     1      53.657  -8.527 -18.066  1.00  0.00    -0.027 C 
HETATM   20  C   UNL     1      53.404  -8.634 -19.386  1.00  0.00    -0.027 C 
BRANCH  20  21
HETATM   21  C   UNL     1      52.890  -7.552 -20.304  1.00  0.00     0.053 C 
BRANCH  21  22
HETATM   22  C   UNL     1      53.917  -7.209 -21.358  1.00  0.00    -0.027 C 
HETATM   23  C   UNL     1      53.979  -7.679 -22.619  1.00  0.00    -0.031 C 
BRANCH  23  24
HETATM   24  C   UNL     1      53.041  -8.673 -23.254  1.00  0.00     0.022 C 
HETATM   25  C   UNL     1      51.870  -8.002 -23.960  1.00  0.00     0.009 C 
ENDBRANCH  23  24
ENDBRANCH  21  22
ENDBRANCH  20  21
ENDBRANCH  18  19
ENDBRANCH  17  18
ENDBRANCH  15  16
ENDBRANCH  14  15
ENDBRANCH  12  13
ENDBRANCH  11  12
ENDBRANCH   9  10
ENDBRANCH   8   9
ENDBRANCH   6   7
ENDBRANCH   5   6
ENDBRANCH   3   5
ENDBRANCH   1   3
TORSDOF 15
ENDMDL
MODEL 4
REMARK VINA RESULT:      -5.4      3.959      8.172
REMARK  15 active torsions:
REMARK  status: ('A' for Active; 'I' for Inactive)
REMARK    1  A    between atoms: O_1  and  C_23 
REMARK    2  A    between atoms: C_3  and  C_7 
REMARK    3  A    between atoms: C_3  and  C_8 
REMARK    4  A    between atoms: C_4  and  C_10 
REMARK    5  A    between atoms: C_4  and  C_11 
REMARK    6  A    between atoms: C_5  and  C_12 
REMARK    7  A    between atoms: C_5  and  C_13 
REMARK    8  A    between atoms: C_6  and  C_15 
REMARK    9  A    between atoms: C_6  and  C_16 
REMARK   10  A    between atoms: C_7  and  C_23 
REMARK   11  A    between atoms: C_9  and  C_17 
REMARK   12  A    between atoms: C_9  and  C_18 
REMARK   13  A    between atoms: C_14  and  C_19 
REMARK   14  A    between atoms: C_14  and  C_20 
REMARK   15  A    between atoms: C_21  and  C_22 
ROOT
HETATM    1  O   UNL     1      47.605  -6.161  -4.449  1.00  0.00    -0.776 OA
HETATM    2  H   UNL     1      48.293  -5.541  -4.170  1.00  0.00     0.167 HD
ENDROOT
BRANCH   1   3
HETATM    3  C   UNL     1      47.787  -6.988  -5.500  1.00  0.00     0.139 C 
HETATM    4  O   UNL     1      48.433  -8.018  -5.365  1.00  0.00    -0.650 OA
BRANCH   3   5
HETATM    5  C   UNL     1      47.189  -6.642  -6.834  1.00  0.00     0.113 C 
BRANCH   5   6
HETATM    6  C   UNL     1      48.268  -6.154  -7.807  1.00  0.00     0.037 C 
BRANCH   6   7
HETATM    7  C   UNL     1      49.392  -5.476  -7.060  1.00  0.00    -0.030 C 
HETATM    8  C   UNL     1      50.670  -5.898  -6.958  1.00  0.00    -0.027 C 
BRANCH   8   9
HETATM    9  C   UNL     1      51.281  -7.143  -7.565  1.00  0.00     0.053 C 
BRANCH   9  10
HETATM   10  C   UNL     1      52.714  -7.305  -7.128  1.00  0.00    -0.027 C 
HETATM   11  C   UNL     1      53.674  -7.958  -7.808  1.00  0.00    -0.027 C 
BRANCH  11  12
HETATM   12  C   UNL     1      53.505  -8.598  -9.161  1.00  0.00     0.053 C 
BRANCH  12  13
HETATM   13  C   UNL     1      54.077  -7.721 -10.247  1.00  0.00    -0.027 C 
HETATM   14  C   UNL     1      53.397  -7.147 -11.257  1.00  0.00    -0.027 C 
BRANCH  14  15
HETATM   15  C   UNL     1      51.927  -7.304 -11.540  1.00  0.00     0.053 C 
BRANCH  15  16
HETATM   16  C   UNL     1      51.212  -6.053 -11.079  1.00  0.00    -0.027 C 
HETATM   17  C   UNL     1      49.889  -5.796 -11.110  1.00  0.00    -0.027 C 
BRANCH  17  18
HETATM   18  C   UNL     1      48.796  -6.711 -11.597  1.00  0.00     0.053 C 
BRANCH  18  19
HETATM   19  C   UNL     1      48.155  -6.156 -12.848  1.00  0.00    -0.027 C 
HETATM   20  C   UNL     1      48.634  -6.207 -14.107  1.00  0.00    -0.027 C 
BRANCH  20  21
HETATM   21  C   UNL     1      49.901  -6.880 -14.573  1.00  0.00     0.053 C 
BRANCH  21  22
HETATM   22  C   UNL     1      50.331  -6.345 -15.919  1.00  0.00    -0.027 C 
HETATM   23  C   UNL     1      51.524  -6.517 -16.521  1.00  0.00    -0.031 C 
BRANCH  23  24
HETATM   24  C   UNL     1      52.708  -7.269 -15.969  1.00  0.00     0.022 C 
HETATM   25  C   UNL     1      53.582  -7.864 -17.065  1.00  0.00     0.009 C 
ENDBRANCH  23  24
ENDBRANCH  21  22
ENDBRANCH  20  21
ENDBRANCH  18  19
ENDBRANCH  17  18
ENDBRANCH  15  16
ENDBRANCH  14  15
ENDBRANCH  12  13
ENDBRANCH  11  12
ENDBRANCH   9  10
ENDBRANCH   8   9
ENDBRANCH   6   7
ENDBRANCH   5   6
ENDBRANCH   3   5
ENDBRANCH   1   3
TORSDOF 15
ENDMDL
MODEL 5
REMARK VINA RESULT:      -5.2      2.797      7.242
REMARK  15 active torsions:
REMARK  status: ('A' for Active; 'I' for Inactive)
REMARK    1  A    between atoms: O_1  and  C_23 
REMARK    2  A    between atoms: C_3  and  C_7 
REMARK    3  A    between atoms: C_3  and  C_8 
REMARK    4  A    between atoms: C_4  and  C_10 
REMARK    5  A    between atoms: C_4  and  C_11 
REMARK    6  A    between atoms: C_5  and  C_12 
REMARK    7  A    between atoms: C_5  and  C_13 
REMARK    8  A    between atoms: C_6  and  C_15 
REMARK    9  A    between atoms: C_6  and  C_16 
REMARK   10  A    between atoms: C_7  and  C_23 
REMARK   11  A    between atoms: C_9  and  C_17 
REMARK   12  A    between atoms: C_9  and  C_18 
REMARK   13  A    between atoms: C_14  and  C_19 
REMARK   14  A    between atoms: C_14  and  C_20 
REMARK   15  A    between atoms: C_21  and  C_22 
ROOT
HETATM    1  O   UNL     1      48.758  -8.780 -18.602  1.00  0.00    -0.776 OA
HETATM    2  H   UNL     1      49.655  -9.008 -18.881  1.00  0.00     0.167 HD
ENDROOT
BRANCH   1   3
HETATM    3  C   UNL     1      48.101  -7.727 -19.134  1.00  0.00     0.139 C 
HETATM    4  O   UNL     1      46.895  -7.610 -18.969  1.00  0.00    -0.650 OA
BRANCH   3   5
HETATM    5  C   UNL     1      48.857  -6.699 -19.926  1.00  0.00     0.113 C 
BRANCH   5   6
HETATM    6  C   UNL     1      50.368  -6.848 -19.715  1.00  0.00     0.037 C 
BRANCH   6   7
HETATM    7  C   UNL     1      51.126  -6.344 -20.919  1.00  0.00    -0.030 C 
HETATM    8  C   UNL     1      52.243  -6.878 -21.459  1.00  0.00    -0.027 C 
BRANCH   8   9
HETATM    9  C   UNL     1      52.998  -8.103 -20.988  1.00  0.00     0.053 C 
BRANCH   9  10
HETATM   10  C   UNL     1      54.213  -7.710 -20.187  1.00  0.00    -0.027 C 
HETATM   11  C   UNL     1      54.332  -7.794 -18.850  1.00  0.00    -0.027 C 
BRANCH  11  12
HETATM   12  C   UNL     1      53.293  -8.351 -17.912  1.00  0.00     0.053 C 
BRANCH  12  13
HETATM   13  C   UNL     1      52.844  -7.305 -16.923  1.00  0.00    -0.027 C 
HETATM   14  C   UNL     1      52.956  -7.365 -15.583  1.00  0.00    -0.027 C 
BRANCH  14  15
HETATM   15  C   UNL     1      53.512  -8.519 -14.791  1.00  0.00     0.053 C 
BRANCH  15  16
HETATM   16  C   UNL     1      53.872  -8.023 -13.408  1.00  0.00    -0.027 C 
HETATM   17  C   UNL     1      53.042  -7.556 -12.453  1.00  0.00    -0.027 C 
BRANCH  17  18
HETATM   18  C   UNL     1      51.543  -7.434 -12.532  1.00  0.00     0.053 C 
BRANCH  18  19
HETATM   19  C   UNL     1      51.041  -6.394 -11.558  1.00  0.00    -0.027 C 
HETATM   20  C   UNL     1      49.907  -5.668 -11.643  1.00  0.00    -0.027 C 
BRANCH  20  21
HETATM   21  C   UNL     1      48.843  -5.765 -12.708  1.00  0.00     0.053 C 
BRANCH  21  22
HETATM   22  C   UNL     1      49.433  -5.539 -14.081  1.00  0.00    -0.027 C 
HETATM   23  C   UNL     1      49.117  -6.185 -15.220  1.00  0.00    -0.031 C 
BRANCH  23  24
HETATM   24  C   UNL     1      48.111  -7.296 -15.373  1.00  0.00     0.022 C 
HETATM   25  C   UNL     1      46.676  -6.806 -15.230  1.00  0.00     0.009 C 
ENDBRANCH  23  24
ENDBRANCH  21  22
ENDBRANCH  20  21
ENDBRANCH  18  19
ENDBRANCH  17  18
ENDBRANCH  15  16
ENDBRANCH  14  15
ENDBRANCH  12  13
ENDBRANCH  11  12
ENDBRANCH   9  10
ENDBRANCH   8   9
ENDBRANCH   6   7
ENDBRANCH   5   6
ENDBRANCH   3   5
ENDBRANCH   1   3
TORSDOF 15
ENDMDL
MODEL 6
REMARK VINA RESULT:      -5.2      3.987      8.162
REMARK  15 active torsions:
REMARK  status: ('A' for Active; 'I' for Inactive)
REMARK    1  A    between atoms: O_1  and  C_23 
REMARK    2  A    between atoms: C_3  and  C_7 
REMARK    3  A    between atoms: C_3  and  C_8 
REMARK    4  A    between atoms: C_4  and  C_10 
REMARK    5  A    between atoms: C_4  and  C_11 
REMARK    6  A    between atoms: C_5  and  C_12 
REMARK    7  A    between atoms: C_5  and  C_13 
REMARK    8  A    between atoms: C_6  and  C_15 
REMARK    9  A    between atoms: C_6  and  C_16 
REMARK   10  A    between atoms: C_7  and  C_23 
REMARK   11  A    between atoms: C_9  and  C_17 
REMARK   12  A    between atoms: C_9  and  C_18 
REMARK   13  A    between atoms: C_14  and  C_19 
REMARK   14  A    between atoms: C_14  and  C_20 
REMARK   15  A    between atoms: C_21  and  C_22 
ROOT
HETATM    1  O   UNL     1      53.003  -8.711 -14.833  1.00  0.00    -0.776 OA
HETATM    2  H   UNL     1      53.957  -8.672 -14.683  1.00  0.00     0.167 HD
ENDROOT
BRANCH   1   3
HETATM    3  C   UNL     1      52.336  -7.682 -15.398  1.00  0.00     0.139 C 
HETATM    4  O   UNL     1      52.713  -7.220 -16.465  1.00  0.00    -0.650 OA
BRANCH   3   5
HETATM    5  C   UNL     1      51.128  -7.110 -14.712  1.00  0.00     0.113 C 
BRANCH   5   6
HETATM    6  C   UNL     1      50.225  -6.379 -15.713  1.00  0.00     0.037 C 
BRANCH   6   7
HETATM    7  C   UNL     1      49.084  -7.266 -16.147  1.00  0.00    -0.030 C 
HETATM    8  C   UNL     1      48.111  -7.780 -15.365  1.00  0.00    -0.027 C 
BRANCH   8   9
HETATM    9  C   UNL     1      47.932  -7.590 -13.873  1.00  0.00     0.053 C 
BRANCH   9  10
HETATM   10  C   UNL     1      46.789  -6.649 -13.585  1.00  0.00    -0.027 C 
HETATM   11  C   UNL     1      46.486  -6.127 -12.383  1.00  0.00    -0.027 C 
BRANCH  11  12
HETATM   12  C   UNL     1      47.269  -6.342 -11.114  1.00  0.00     0.053 C 
BRANCH  12  13
HETATM   13  C   UNL     1      46.378  -6.866 -10.015  1.00  0.00    -0.027 C 
HETATM   14  C   UNL     1      46.674  -6.930  -8.703  1.00  0.00    -0.027 C 
BRANCH  14  15
HETATM   15  C   UNL     1      47.981  -6.533  -8.069  1.00  0.00     0.053 C 
BRANCH  15  16
HETATM   16  C   UNL     1      48.980  -7.647  -8.290  1.00  0.00    -0.027 C 
HETATM   17  C   UNL     1      50.137  -7.597  -8.980  1.00  0.00    -0.027 C 
BRANCH  17  18
HETATM   18  C   UNL     1      50.724  -6.404  -9.686  1.00  0.00     0.053 C 
BRANCH  18  19
HETATM   19  C   UNL     1      51.169  -6.775 -11.082  1.00  0.00    -0.027 C 
HETATM   20  C   UNL     1      52.411  -7.117 -11.484  1.00  0.00    -0.027 C 
BRANCH  20  21
HETATM   21  C   UNL     1      53.639  -7.262 -10.620  1.00  0.00     0.053 C 
BRANCH  21  22
HETATM   22  C   UNL     1      53.584  -8.541  -9.818  1.00  0.00    -0.027 C 
HETATM   23  C   UNL     1      53.544  -8.660  -8.476  1.00  0.00    -0.031 C 
BRANCH  23  24
HETATM   24  C   UNL     1      53.566  -7.535  -7.474  1.00  0.00     0.022 C 
HETATM   25  C   UNL     1      53.661  -8.035  -6.038  1.00  0.00     0.009 C 
ENDBRANCH  23  24
ENDBRANCH  21  22
ENDBRANCH  20  21
ENDBRANCH  18  19
ENDBRANCH  17  18
ENDBRANCH  15  16
ENDBRANCH  14  15
ENDBRANCH  12  13
ENDBRANCH  11  12
ENDBRANCH   9  10
ENDBRANCH   8   9
ENDBRANCH   6   7
ENDBRANCH   5   6
ENDBRANCH   3   5
ENDBRANCH   1   3
TORSDOF 15
ENDMDL
MODEL 7
REMARK VINA RESULT:      -5.1      5.229      9.039
REMARK  15 active torsions:
REMARK  status: ('A' for Active; 'I' for Inactive)
REMARK    1  A    between atoms: O_1  and  C_23 
REMARK    2  A    between atoms: C_3  and  C_7 
REMARK    3  A    between atoms: C_3  and  C_8 
REMARK    4  A    between atoms: C_4  and  C_10 
REMARK    5  A    between atoms: C_4  and  C_11 
REMARK    6  A    between atoms: C_5  and  C_12 
REMARK    7  A    between atoms: C_5  and  C_13 
REMARK    8  A    between atoms: C_6  and  C_15 
REMARK    9  A    between atoms: C_6  and  C_16 
REMARK   10  A    between atoms: C_7  and  C_23 
REMARK   11  A    between atoms: C_9  and  C_17 
REMARK   12  A    between atoms: C_9  and  C_18 
REMARK   13  A    between atoms: C_14  and  C_19 
REMARK   14  A    between atoms: C_14  and  C_20 
REMARK   15  A    between atoms: C_21  and  C_22 
ROOT
HETATM    1  O   UNL     1      53.235  -9.145 -19.926  1.00  0.00    -0.776 OA
HETATM    2  H   UNL     1      52.600  -9.336 -20.630  1.00  0.00     0.167 HD
ENDROOT
BRANCH   1   3
HETATM    3  C   UNL     1      53.996  -8.030 -19.948  1.00  0.00     0.139 C 
HETATM    4  O   UNL     1      54.534  -7.635 -18.924  1.00  0.00    -0.650 OA
BRANCH   3   5
HETATM    5  C   UNL     1      54.182  -7.280 -21.236  1.00  0.00     0.113 C 
BRANCH   5   6
HETATM    6  C   UNL     1      53.055  -7.601 -22.224  1.00  0.00     0.037 C 
BRANCH   6   7
HETATM    7  C   UNL     1      53.450  -8.743 -23.129  1.00  0.00    -0.030 C 
HETATM    8  C   UNL     1      53.860  -8.659 -24.413  1.00  0.00    -0.027 C 
BRANCH   8   9
HETATM    9  C   UNL     1      54.021  -7.407 -25.248  1.00  0.00     0.053 C 
BRANCH   9  10
HETATM   10  C   UNL     1      53.415  -7.592 -26.616  1.00  0.00    -0.027 C 
HETATM   11  C   UNL     1      52.246  -7.074 -27.034  1.00  0.00    -0.027 C 
BRANCH  11  12
HETATM   12  C   UNL     1      51.356  -6.163 -26.228  1.00  0.00     0.053 C 
BRANCH  12  13
HETATM   13  C   UNL     1      50.545  -5.267 -27.131  1.00  0.00    -0.027 C 
HETATM   14  C   UNL     1      49.232  -5.378 -27.403  1.00  0.00    -0.027 C 
BRANCH  14  15
HETATM   15  C   UNL     1      48.309  -6.456 -26.899  1.00  0.00     0.053 C 
BRANCH  15  16
HETATM   16  C   UNL     1      48.551  -7.712 -27.706  1.00  0.00    -0.027 C 
HETATM   17  C   UNL     1      48.621  -8.983 -27.261  1.00  0.00    -0.027 C 
BRANCH  17  18
HETATM   18  C   UNL     1      48.454  -9.459 -25.842  1.00  0.00     0.053 C 
BRANCH  18  19
HETATM   19  C   UNL     1      49.722  -9.233 -25.051  1.00  0.00    -0.027 C 
HETATM   20  C   UNL     1      49.886  -8.444 -23.970  1.00  0.00    -0.027 C 
BRANCH  20  21
HETATM   21  C   UNL     1      48.823  -7.640 -23.261  1.00  0.00     0.053 C 
BRANCH  21  22
HETATM   22  C   UNL     1      49.160  -6.168 -23.280  1.00  0.00    -0.027 C 
HETATM   23  C   UNL     1      49.707  -5.443 -22.284  1.00  0.00    -0.031 C 
BRANCH  23  24
HETATM   24  C   UNL     1      50.087  -5.944 -20.915  1.00  0.00     0.022 C 
HETATM   25  C   UNL     1      48.972  -5.755 -19.894  1.00  0.00     0.009 C 
ENDBRANCH  23  24
ENDBRANCH  21  22
ENDBRANCH  20  21
ENDBRANCH  18  19
ENDBRANCH  17  18
ENDBRANCH  15  16
ENDBRANCH  14  15
ENDBRANCH  12  13
ENDBRANCH  11  12
ENDBRANCH   9  10
ENDBRANCH   8   9
ENDBRANCH   6   7
ENDBRANCH   5   6
ENDBRANCH   3   5
ENDBRANCH   1   3
TORSDOF 15
ENDMDL
MODEL 8
REMARK VINA RESULT:      -5.1      3.286      7.642
REMARK  15 active torsions:
REMARK  status: ('A' for Active; 'I' for Inactive)
REMARK    1  A    between atoms: O_1  and  C_23 
REMARK    2  A    between atoms: C_3  and  C_7 
REMARK    3  A    between atoms: C_3  and  C_8 
REMARK    4  A    between atoms: C_4  and  C_10 
REMARK    5  A    between atoms: C_4  and  C_11 
REMARK    6  A    between atoms: C_5  and  C_12 
REMARK    7  A    between atoms: C_5  and  C_13 
REMARK    8  A    between atoms: C_6  and  C_15 
REMARK    9  A    between atoms: C_6  and  C_16 
REMARK   10  A    between atoms: C_7  and  C_23 
REMARK   11  A    between atoms: C_9  and  C_17 
REMARK   12  A    between atoms: C_9  and  C_18 
REMARK   13  A    between atoms: C_14  and  C_19 
REMARK   14  A    between atoms: C_14  and  C_20 
REMARK   15  A    between atoms: C_21  and  C_22 
ROOT
HETATM    1  O   UNL     1      54.682  -7.454 -13.195  1.00  0.00    -0.776 OA
HETATM    2  H   UNL     1      54.976  -7.977 -13.954  1.00  0.00     0.167 HD
ENDROOT
BRANCH   1   3
HETATM    3  C   UNL     1      53.651  -7.856 -12.421  1.00  0.00     0.139 C 
HETATM    4  O   UNL     1      52.809  -8.620 -12.870  1.00  0.00    -0.650 OA
BRANCH   3   5
HETATM    5  C   UNL     1      53.545  -7.363 -11.006  1.00  0.00     0.113 C 
BRANCH   5   6
HETATM    6  C   UNL     1      53.757  -8.509 -10.010  1.00  0.00     0.037 C 
BRANCH   6   7
HETATM    7  C   UNL     1      53.349  -8.087  -8.619  1.00  0.00    -0.030 C 
HETATM    8  C   UNL     1      52.130  -7.660  -8.224  1.00  0.00    -0.027 C 
BRANCH   8   9
HETATM    9  C   UNL     1      50.889  -7.503  -9.076  1.00  0.00     0.053 C 
BRANCH   9  10
HETATM   10  C   UNL     1      49.678  -7.243  -8.216  1.00  0.00    -0.027 C 
HETATM   11  C   UNL     1      48.397  -7.316  -8.621  1.00  0.00    -0.027 C 
BRANCH  11  12
HETATM   12  C   UNL     1      47.937  -7.728  -9.995  1.00  0.00     0.053 C 
BRANCH  12  13
HETATM   13  C   UNL     1      47.345  -6.556 -10.739  1.00  0.00    -0.027 C 
HETATM   14  C   UNL     1      47.106  -6.483 -12.061  1.00  0.00    -0.027 C 
BRANCH  14  15
HETATM   15  C   UNL     1      47.426  -7.543 -13.081  1.00  0.00     0.053 C 
BRANCH  15  16
HETATM   16  C   UNL     1      47.001  -7.044 -14.444  1.00  0.00    -0.027 C 
HETATM   17  C   UNL     1      47.684  -6.239 -15.283  1.00  0.00    -0.027 C 
BRANCH  17  18
HETATM   18  C   UNL     1      49.056  -5.656 -15.067  1.00  0.00     0.053 C 
BRANCH  18  19
HETATM   19  C   UNL     1      49.587  -5.055 -16.347  1.00  0.00    -0.027 C 
HETATM   20  C   UNL     1      49.681  -5.646 -17.555  1.00  0.00    -0.027 C 
BRANCH  20  21
HETATM   21  C   UNL     1      49.223  -7.035 -17.926  1.00  0.00     0.053 C 
BRANCH  21  22
HETATM   22  C   UNL     1      47.999  -6.980 -18.810  1.00  0.00    -0.027 C 
HETATM   23  C   UNL     1      47.964  -6.774 -20.141  1.00  0.00    -0.031 C 
BRANCH  23  24
HETATM   24  C   UNL     1      49.146  -6.531 -21.043  1.00  0.00     0.022 C 
HETATM   25  C   UNL     1      49.460  -5.050 -21.207  1.00  0.00     0.009 C 
ENDBRANCH  23  24
ENDBRANCH  21  22
ENDBRANCH  20  21
ENDBRANCH  18  19
ENDBRANCH  17  18
ENDBRANCH  15  16
ENDBRANCH  14  15
ENDBRANCH  12  13
ENDBRANCH  11  12
ENDBRANCH   9  10
ENDBRANCH   8   9
ENDBRANCH   6   7
ENDBRANCH   5   6
ENDBRANCH   3   5
ENDBRANCH   1   3
TORSDOF 15
ENDMDL
MODEL 9
REMARK VINA RESULT:      -5.1      4.123      6.536
REMARK  15 active torsions:
REMARK  status: ('A' for Active; 'I' for Inactive)
REMARK    1  A    between atoms: O_1  and  C_23 
REMARK    2  A    between atoms: C_3  and  C_7 
REMARK    3  A    between atoms: C_3  and  C_8 
REMARK    4  A    between atoms: C_4  and  C_10 
REMARK    5  A    between atoms: C_4  and  C_11 
REMARK    6  A    between atoms: C_5  and  C_12 
REMARK    7  A    between atoms: C_5  and  C_13 
REMARK    8  A    between atoms: C_6  and  C_15 
REMARK    9  A    between atoms: C_6  and  C_16 
REMARK   10  A    between atoms: C_7  and  C_23 
REMARK   11  A    between atoms: C_9  and  C_17 
REMARK   12  A    between atoms: C_9  and  C_18 
REMARK   13  A    between atoms: C_14  and  C_19 
REMARK   14  A    between atoms: C_14  and  C_20 
REMARK   15  A    between atoms: C_21  and  C_22 
ROOT
HETATM    1  O   UNL     1      46.840  -7.044 -18.059  1.00  0.00    -0.776 OA
HETATM    2  H   UNL     1      46.181  -7.199 -17.368  1.00  0.00     0.167 HD
ENDROOT
BRANCH   1   3
HETATM    3  C   UNL     1      47.902  -7.864 -18.215  1.00  0.00     0.139 C 
HETATM    4  O   UNL     1      48.175  -8.683 -17.350  1.00  0.00    -0.650 OA
BRANCH   3   5
HETATM    5  C   UNL     1      48.742  -7.768 -19.456  1.00  0.00     0.113 C 
BRANCH   5   6
HETATM    6  C   UNL     1      49.590  -6.491 -19.445  1.00  0.00     0.037 C 
BRANCH   6   7
HETATM    7  C   UNL     1      48.960  -5.425 -20.309  1.00  0.00    -0.030 C 
HETATM    8  C   UNL     1      49.178  -5.212 -21.625  1.00  0.00    -0.027 C 
BRANCH   8   9
HETATM    9  C   UNL     1      50.100  -5.985 -22.543  1.00  0.00     0.053 C 
BRANCH   9  10
HETATM   10  C   UNL     1      49.365  -7.116 -23.215  1.00  0.00    -0.027 C 
HETATM   11  C   UNL     1      48.715  -7.042 -24.391  1.00  0.00    -0.027 C 
BRANCH  11  12
HETATM   12  C   UNL     1      48.653  -5.827 -25.280  1.00  0.00     0.053 C 
BRANCH  12  13
HETATM   13  C   UNL     1      48.901  -6.201 -26.720  1.00  0.00    -0.027 C 
HETATM   14  C   UNL     1      50.074  -6.131 -27.377  1.00  0.00    -0.027 C 
BRANCH  14  15
HETATM   15  C   UNL     1      51.374  -5.616 -26.819  1.00  0.00     0.053 C 
BRANCH  15  16
HETATM   16  C   UNL     1      52.508  -6.173 -27.650  1.00  0.00    -0.027 C 
HETATM   17  C   UNL     1      53.559  -6.908 -27.232  1.00  0.00    -0.027 C 
BRANCH  17  18
HETATM   18  C   UNL     1      53.846  -7.368 -25.827  1.00  0.00     0.053 C 
BRANCH  18  19
HETATM   19  C   UNL     1      52.840  -8.408 -25.392  1.00  0.00    -0.027 C 
HETATM   20  C   UNL     1      52.742  -9.000 -24.184  1.00  0.00    -0.027 C 
BRANCH  20  21
HETATM   21  C   UNL     1      53.583  -8.721 -22.963  1.00  0.00     0.053 C 
BRANCH  21  22
HETATM   22  C   UNL     1      52.977  -7.614 -22.133  1.00  0.00    -0.027 C 
HETATM   23  C   UNL     1      53.205  -7.353 -20.831  1.00  0.00    -0.031 C 
BRANCH  23  24
HETATM   24  C   UNL     1      54.108  -8.126 -19.906  1.00  0.00     0.022 C 
HETATM   25  C   UNL     1      53.331  -8.986 -18.917  1.00  0.00     0.009 C 
ENDBRANCH  23  24
ENDBRANCH  21  22
ENDBRANCH  20  21
ENDBRANCH  18  19
ENDBRANCH  17  18
ENDBRANCH  15  16
ENDBRANCH  14  15
ENDBRANCH  12  13
ENDBRANCH  11  12
ENDBRANCH   9  10
ENDBRANCH   8   9
ENDBRANCH   6   7
ENDBRANCH   5   6
ENDBRANCH   3   5
ENDBRANCH   1   3
TORSDOF 15
ENDMDL
MODEL 10
REMARK VINA RESULT:      -5.1      3.137      7.385
REMARK  15 active torsions:
REMARK  status: ('A' for Active; 'I' for Inactive)
REMARK    1  A    between atoms: O_1  and  C_23 
REMARK    2  A    between atoms: C_3  and  C_7 
REMARK    3  A    between atoms: C_3  and  C_8 
REMARK    4  A    between atoms: C_4  and  C_10 
REMARK    5  A    between atoms: C_4  and  C_11 
REMARK    6  A    between atoms: C_5  and  C_12 
REMARK    7  A    between atoms: C_5  and  C_13 
REMARK    8  A    between atoms: C_6  and  C_15 
REMARK    9  A    between atoms: C_6  and  C_16 
REMARK   10  A    between atoms: C_7  and  C_23 
REMARK   11  A    between atoms: C_9  and  C_17 
REMARK   12  A    between atoms: C_9  and  C_18 
REMARK   13  A    between atoms: C_14  and  C_19 
REMARK   14  A    between atoms: C_14  and  C_20 
REMARK   15  A    between atoms: C_21  and  C_22 
ROOT
HETATM    1  O   UNL     1      47.848  -5.208 -11.963  1.00  0.00    -0.776 OA
HETATM    2  H   UNL     1      47.999  -4.839 -12.845  1.00  0.00     0.167 HD
ENDROOT
BRANCH   1   3
HETATM    3  C   UNL     1      46.665  -5.764 -11.626  1.00  0.00     0.139 C 
HETATM    4  O   UNL     1      45.689  -5.612 -12.346  1.00  0.00    -0.650 OA
BRANCH   3   5
HETATM    5  C   UNL     1      46.554  -6.574 -10.366  1.00  0.00     0.113 C 
BRANCH   5   6
HETATM    6  C   UNL     1      47.804  -6.405  -9.494  1.00  0.00     0.037 C 
BRANCH   6   7
HETATM    7  C   UNL     1      48.495  -7.731  -9.291  1.00  0.00    -0.030 C 
HETATM    8  C   UNL     1      49.797  -7.932  -8.996  1.00  0.00    -0.027 C 
BRANCH   8   9
HETATM    9  C   UNL     1      50.870  -6.882  -8.799  1.00  0.00     0.053 C 
BRANCH   9  10
HETATM   10  C   UNL     1      51.824  -7.288  -7.705  1.00  0.00    -0.027 C 
HETATM   11  C   UNL     1      52.913  -8.062  -7.859  1.00  0.00    -0.027 C 
BRANCH  11  12
HETATM   12  C   UNL     1      53.412  -8.617  -9.168  1.00  0.00     0.053 C 
BRANCH  12  13
HETATM   13  C   UNL     1      54.310  -7.626  -9.866  1.00  0.00    -0.027 C 
HETATM   14  C   UNL     1      54.195  -7.194 -11.135  1.00  0.00    -0.027 C 
BRANCH  14  15
HETATM   15  C   UNL     1      53.169  -7.650 -12.138  1.00  0.00     0.053 C 
BRANCH  15  16
HETATM   16  C   UNL     1      51.902  -6.851 -11.928  1.00  0.00    -0.027 C 
HETATM   17  C   UNL     1      50.821  -6.784 -12.731  1.00  0.00    -0.027 C 
BRANCH  17  18
HETATM   18  C   UNL     1      50.609  -7.512 -14.032  1.00  0.00     0.053 C 
BRANCH  18  19
HETATM   19  C   UNL     1      49.151  -7.484 -14.428  1.00  0.00    -0.027 C 
HETATM   20  C   UNL     1      48.483  -6.479 -15.030  1.00  0.00    -0.027 C 
BRANCH  20  21
HETATM   21  C   UNL     1      49.051  -5.163 -15.501  1.00  0.00     0.053 C 
BRANCH  21  22
HETATM   22  C   UNL     1      49.897  -5.354 -16.739  1.00  0.00    -0.027 C 
HETATM   23  C   UNL     1      49.534  -5.954 -17.889  1.00  0.00    -0.031 C 
BRANCH  23  24
HETATM   24  C   UNL     1      48.200  -6.586 -18.190  1.00  0.00     0.022 C 
HETATM   25  C   UNL     1      48.337  -7.976 -18.799  1.00  0.00     0.009 C 
ENDBRANCH  23  24
ENDBRANCH  21  22
ENDBRANCH  20  21
ENDBRANCH  18  19
ENDBRANCH  17  18
ENDBRANCH  15  16
ENDBRANCH  14  15
ENDBRANCH  12  13
ENDBRANCH  11  12
ENDBRANCH   9  10
ENDBRANCH   8   9
ENDBRANCH   6   7
ENDBRANCH   5   6
ENDBRANCH   3   5
ENDBRANCH   1   3
TORSDOF 15
ENDMDL
MODEL 11
REMARK VINA RESULT:      -5.1      5.478      8.575
REMARK  15 active torsions:
REMARK  status: ('A' for Active; 'I' for Inactive)
REMARK    1  A    between atoms: O_1  and  C_23 
REMARK    2  A    between atoms: C_3  and  C_7 
REMARK    3  A    between atoms: C_3  and  C_8 
REMARK    4  A    between atoms: C_4  and  C_10 
REMARK    5  A    between atoms: C_4  and  C_11 
REMARK    6  A    between atoms: C_5  and  C_12 
REMARK    7  A    between atoms: C_5  and  C_13 
REMARK    8  A    between atoms: C_6  and  C_15 
REMARK    9  A    between atoms: C_6  and  C_16 
REMARK   10  A    between atoms: C_7  and  C_23 
REMARK   11  A    between atoms: C_9  and  C_17 
REMARK   12  A    between atoms: C_9  and  C_18 
REMARK   13  A    between atoms: C_14  and  C_19 
REMARK   14  A    between atoms: C_14  and  C_20 
REMARK   15  A    between atoms: C_21  and  C_22 
ROOT
HETATM    1  O   UNL     1      45.858  -9.287 -24.286  1.00  0.00    -0.776 OA
HETATM    2  H   UNL     1      46.297  -8.558 -23.825  1.00  0.00     0.167 HD
ENDROOT
BRANCH   1   3
HETATM    3  C   UNL     1      46.437 -10.502 -24.394  1.00  0.00     0.139 C 
HETATM    4  O   UNL     1      46.561 -11.211 -23.406  1.00  0.00    -0.650 OA
BRANCH   3   5
HETATM    5  C   UNL     1      46.924 -10.980 -25.732  1.00  0.00     0.113 C 
BRANCH   5   6
HETATM    6  C   UNL     1      47.616  -9.847 -26.499  1.00  0.00     0.037 C 
BRANCH   6   7
HETATM    7  C   UNL     1      49.097 -10.116 -26.624  1.00  0.00    -0.030 C 
HETATM    8  C   UNL     1      50.054  -9.829 -25.716  1.00  0.00    -0.027 C 
BRANCH   8   9
HETATM    9  C   UNL     1      49.874  -9.173 -24.364  1.00  0.00     0.053 C 
BRANCH   9  10
HETATM   10  C   UNL     1      49.576  -7.703 -24.516  1.00  0.00    -0.027 C 
HETATM   11  C   UNL     1      48.735  -6.988 -23.747  1.00  0.00    -0.027 C 
BRANCH  11  12
HETATM   12  C   UNL     1      47.982  -7.514 -22.553  1.00  0.00     0.053 C 
BRANCH  12  13
HETATM   13  C   UNL     1      47.120  -6.437 -21.943  1.00  0.00    -0.027 C 
HETATM   14  C   UNL     1      46.836  -6.279 -20.637  1.00  0.00    -0.027 C 
BRANCH  14  15
HETATM   15  C   UNL     1      47.284  -7.179 -19.517  1.00  0.00     0.053 C 
BRANCH  15  16
HETATM   16  C   UNL     1      48.180  -6.386 -18.591  1.00  0.00    -0.027 C 
HETATM   17  C   UNL     1      49.527  -6.332 -18.585  1.00  0.00    -0.027 C 
BRANCH  17  18
HETATM   18  C   UNL     1      50.469  -7.042 -19.522  1.00  0.00     0.053 C 
BRANCH  18  19
HETATM   19  C   UNL     1      50.718  -6.212 -20.759  1.00  0.00    -0.027 C 
HETATM   20  C   UNL     1      51.650  -6.417 -21.712  1.00  0.00    -0.027 C 
BRANCH  20  21
HETATM   21  C   UNL     1      52.631  -7.560 -21.794  1.00  0.00     0.053 C 
BRANCH  21  22
HETATM   22  C   UNL     1      53.913  -7.222 -21.067  1.00  0.00    -0.027 C 
HETATM   23  C   UNL     1      54.282  -7.624 -19.836  1.00  0.00    -0.031 C 
BRANCH  23  24
HETATM   24  C   UNL     1      53.483  -8.492 -18.898  1.00  0.00     0.022 C 
HETATM   25  C   UNL     1      53.520  -7.985 -17.462  1.00  0.00     0.009 C 
ENDBRANCH  23  24
ENDBRANCH  21  22
ENDBRANCH  20  21
ENDBRANCH  18  19
ENDBRANCH  17  18
ENDBRANCH  15  16
ENDBRANCH  14  15
ENDBRANCH  12  13
ENDBRANCH  11  12
ENDBRANCH   9  10
ENDBRANCH   8   9
ENDBRANCH   6   7
ENDBRANCH   5   6
ENDBRANCH   3   5
ENDBRANCH   1   3
TORSDOF 15
ENDMDL
MODEL 12
REMARK VINA RESULT:      -5.1     21.189     23.763
REMARK  15 active torsions:
REMARK  status: ('A' for Active; 'I' for Inactive)
REMARK    1  A    between atoms: O_1  and  C_23 
REMARK    2  A    between atoms: C_3  and  C_7 
REMARK    3  A    between atoms: C_3  and  C_8 
REMARK    4  A    between atoms: C_4  and  C_10 
REMARK    5  A    between atoms: C_4  and  C_11 
REMARK    6  A    between atoms: C_5  and  C_12 
REMARK    7  A    between atoms: C_5  and  C_13 
REMARK    8  A    between atoms: C_6  and  C_15 
REMARK    9  A    between atoms: C_6  and  C_16 
REMARK   10  A    between atoms: C_7  and  C_23 
REMARK   11  A    between atoms: C_9  and  C_17 
REMARK   12  A    between atoms: C_9  and  C_18 
REMARK   13  A    between atoms: C_14  and  C_19 
REMARK   14  A    between atoms: C_14  and  C_20 
REMARK   15  A    between atoms: C_21  and  C_22 
ROOT
HETATM    1  O   UNL     1      32.225 -16.558 -19.934  1.00  0.00    -0.776 OA
HETATM    2  H   UNL     1      32.251 -16.199 -20.832  1.00  0.00     0.167 HD
ENDROOT
BRANCH   1   3
HETATM    3  C   UNL     1      31.201 -16.286 -19.097  1.00  0.00     0.139 C 
HETATM    4  O   UNL     1      30.054 -16.555 -19.425  1.00  0.00    -0.650 OA
BRANCH   3   5
HETATM    5  C   UNL     1      31.476 -15.657 -17.761  1.00  0.00     0.113 C 
BRANCH   5   6
HETATM    6  C   UNL     1      32.020 -16.691 -16.770  1.00  0.00     0.037 C 
BRANCH   6   7
HETATM    7  C   UNL     1      30.970 -17.050 -15.746  1.00  0.00    -0.030 C 
HETATM    8  C   UNL     1      30.595 -16.317 -14.676  1.00  0.00    -0.027 C 
BRANCH   8   9
HETATM    9  C   UNL     1      31.132 -14.968 -14.249  1.00  0.00     0.053 C 
BRANCH   9  10
HETATM   10  C   UNL     1      30.041 -13.928 -14.258  1.00  0.00    -0.027 C 
HETATM   11  C   UNL     1      30.024 -12.813 -15.011  1.00  0.00    -0.027 C 
BRANCH  11  12
HETATM   12  C   UNL     1      31.067 -12.428 -16.027  1.00  0.00     0.053 C 
BRANCH  12  13
HETATM   13  C   UNL     1      30.549 -11.353 -16.949  1.00  0.00    -0.027 C 
HETATM   14  C   UNL     1      29.747 -11.527 -18.016  1.00  0.00    -0.027 C 
BRANCH  14  15
HETATM   15  C   UNL     1      29.239 -12.845 -18.538  1.00  0.00     0.053 C 
BRANCH  15  16
HETATM   16  C   UNL     1      27.804 -13.017 -18.093  1.00  0.00    -0.027 C 
HETATM   17  C   UNL     1      27.258 -14.062 -17.439  1.00  0.00    -0.027 C 
BRANCH  17  18
HETATM   18  C   UNL     1      27.961 -15.310 -16.972  1.00  0.00     0.053 C 
BRANCH  18  19
HETATM   19  C   UNL     1      26.961 -16.344 -16.510  1.00  0.00    -0.027 C 
HETATM   20  C   UNL     1      26.549 -16.581 -15.248  1.00  0.00    -0.027 C 
BRANCH  20  21
HETATM   21  C   UNL     1      26.951 -15.829 -14.003  1.00  0.00     0.053 C 
BRANCH  21  22
HETATM   22  C   UNL     1      26.673 -16.649 -12.766  1.00  0.00    -0.027 C 
HETATM   23  C   UNL     1      27.195 -16.473 -11.536  1.00  0.00    -0.031 C 
BRANCH  23  24
HETATM   24  C   UNL     1      28.194 -15.421 -11.128  1.00  0.00     0.022 C 
HETATM   25  C   UNL     1      29.597 -15.987 -10.950  1.00  0.00     0.009 C 
ENDBRANCH  23  24
ENDBRANCH  21  22
ENDBRANCH  20  21
ENDBRANCH  18  19
ENDBRANCH  17  18
ENDBRANCH  15  16
ENDBRANCH  14  15
ENDBRANCH  12  13
ENDBRANCH  11  12
ENDBRANCH   9  10
ENDBRANCH   8   9
ENDBRANCH   6   7
ENDBRANCH   5   6
ENDBRANCH   3   5
ENDBRANCH   1   3
TORSDOF 15
ENDMDL
MODEL 13
REMARK VINA RESULT:      -5.0     20.922     24.383
REMARK  15 active torsions:
REMARK  status: ('A' for Active; 'I' for Inactive)
REMARK    1  A    between atoms: O_1  and  C_23 
REMARK    2  A    between atoms: C_3  and  C_7 
REMARK    3  A    between atoms: C_3  and  C_8 
REMARK    4  A    between atoms: C_4  and  C_10 
REMARK    5  A    between atoms: C_4  and  C_11 
REMARK    6  A    between atoms: C_5  and  C_12 
REMARK    7  A    between atoms: C_5  and  C_13 
REMARK    8  A    between atoms: C_6  and  C_15 
REMARK    9  A    between atoms: C_6  and  C_16 
REMARK   10  A    between atoms: C_7  and  C_23 
REMARK   11  A    between atoms: C_9  and  C_17 
REMARK   12  A    between atoms: C_9  and  C_18 
REMARK   13  A    between atoms: C_14  and  C_19 
REMARK   14  A    between atoms: C_14  and  C_20 
REMARK   15  A    between atoms: C_21  and  C_22 
ROOT
HETATM    1  O   UNL     1      35.185  -9.292  -4.485  1.00  0.00    -0.776 OA
HETATM    2  H   UNL     1      36.088  -9.156  -4.803  1.00  0.00     0.167 HD
ENDROOT
BRANCH   1   3
HETATM    3  C   UNL     1      34.645 -10.527  -4.406  1.00  0.00     0.139 C 
HETATM    4  O   UNL     1      35.337 -11.477  -4.070  1.00  0.00    -0.650 OA
BRANCH   3   5
HETATM    5  C   UNL     1      33.192 -10.727  -4.727  1.00  0.00     0.113 C 
BRANCH   5   6
HETATM    6  C   UNL     1      33.023 -11.475  -6.055  1.00  0.00     0.037 C 
BRANCH   6   7
HETATM    7  C   UNL     1      32.201 -12.727  -5.859  1.00  0.00    -0.030 C 
HETATM    8  C   UNL     1      30.893 -12.893  -6.149  1.00  0.00    -0.027 C 
BRANCH   8   9
HETATM    9  C   UNL     1      29.942 -11.872  -6.735  1.00  0.00     0.053 C 
BRANCH   9  10
HETATM   10  C   UNL     1      30.264 -11.607  -8.184  1.00  0.00    -0.027 C 
HETATM   11  C   UNL     1      29.596 -12.104  -9.240  1.00  0.00    -0.027 C 
BRANCH  11  12
HETATM   12  C   UNL     1      28.366 -12.970  -9.168  1.00  0.00     0.053 C 
BRANCH  12  13
HETATM   13  C   UNL     1      27.861 -13.304 -10.550  1.00  0.00    -0.027 C 
HETATM   14  C   UNL     1      27.710 -14.535 -11.074  1.00  0.00    -0.027 C 
BRANCH  14  15
HETATM   15  C   UNL     1      28.063 -15.835 -10.400  1.00  0.00     0.053 C 
BRANCH  15  16
HETATM   16  C   UNL     1      26.866 -16.305  -9.605  1.00  0.00    -0.027 C 
HETATM   17  C   UNL     1      26.796 -16.555  -8.282  1.00  0.00    -0.027 C 
BRANCH  17  18
HETATM   18  C   UNL     1      27.901 -16.407  -7.269  1.00  0.00     0.053 C 
BRANCH  18  19
HETATM   19  C   UNL     1      27.627 -15.240  -6.349  1.00  0.00    -0.027 C 
HETATM   20  C   UNL     1      27.860 -15.168  -5.022  1.00  0.00    -0.027 C 
BRANCH  20  21
HETATM   21  C   UNL     1      28.501 -16.221  -4.153  1.00  0.00     0.053 C 
BRANCH  21  22
HETATM   22  C   UNL     1      29.909 -15.823  -3.776  1.00  0.00    -0.027 C 
HETATM   23  C   UNL     1      31.053 -16.204  -4.379  1.00  0.00    -0.031 C 
BRANCH  23  24
HETATM   24  C   UNL     1      31.179 -17.132  -5.559  1.00  0.00     0.022 C 
HETATM   25  C   UNL     1      31.695 -16.425  -6.805  1.00  0.00     0.009 C 
ENDBRANCH  23  24
ENDBRANCH  21  22
ENDBRANCH  20  21
ENDBRANCH  18  19
ENDBRANCH  17  18
ENDBRANCH  15  16
ENDBRANCH  14  15
ENDBRANCH  12  13
ENDBRANCH  11  12
ENDBRANCH   9  10
ENDBRANCH   8   9
ENDBRANCH   6   7
ENDBRANCH   5   6
ENDBRANCH   3   5
ENDBRANCH   1   3
TORSDOF 15
ENDMDL
MODEL 14
REMARK VINA RESULT:      -5.0     22.260     24.386
REMARK  15 active torsions:
REMARK  status: ('A' for Active; 'I' for Inactive)
REMARK    1  A    between atoms: O_1  and  C_23 
REMARK    2  A    between atoms: C_3  and  C_7 
REMARK    3  A    between atoms: C_3  and  C_8 
REMARK    4  A    between atoms: C_4  and  C_10 
REMARK    5  A    between atoms: C_4  and  C_11 
REMARK    6  A    between atoms: C_5  and  C_12 
REMARK    7  A    between atoms: C_5  and  C_13 
REMARK    8  A    between atoms: C_6  and  C_15 
REMARK    9  A    between atoms: C_6  and  C_16 
REMARK   10  A    between atoms: C_7  and  C_23 
REMARK   11  A    between atoms: C_9  and  C_17 
REMARK   12  A    between atoms: C_9  and  C_18 
REMARK   13  A    between atoms: C_14  and  C_19 
REMARK   14  A    between atoms: C_14  and  C_20 
REMARK   15  A    between atoms: C_21  and  C_22 
ROOT
HETATM    1  O   UNL     1      25.942 -17.722  -8.046  1.00  0.00    -0.776 OA
HETATM    2  H   UNL     1      25.521 -18.467  -7.595  1.00  0.00     0.167 HD
ENDROOT
BRANCH   1   3
HETATM    3  C   UNL     1      26.449 -16.677  -7.359  1.00  0.00     0.139 C 
HETATM    4  O   UNL     1      26.492 -16.710  -6.137  1.00  0.00    -0.650 OA
BRANCH   3   5
HETATM    5  C   UNL     1      26.962 -15.475  -8.099  1.00  0.00     0.113 C 
BRANCH   5   6
HETATM    6  C   UNL     1      27.973 -15.886  -9.176  1.00  0.00     0.037 C 
BRANCH   6   7
HETATM    7  C   UNL     1      27.541 -15.382 -10.532  1.00  0.00    -0.030 C 
HETATM    8  C   UNL     1      27.759 -14.155 -11.050  1.00  0.00    -0.027 C 
BRANCH   8   9
HETATM    9  C   UNL     1      28.485 -12.996 -10.401  1.00  0.00     0.053 C 
BRANCH   9  10
HETATM   10  C   UNL     1      29.471 -12.376 -11.358  1.00  0.00    -0.027 C 
HETATM   11  C   UNL     1      30.754 -12.748 -11.516  1.00  0.00    -0.027 C 
BRANCH  11  12
HETATM   12  C   UNL     1      31.425 -13.894 -10.804  1.00  0.00     0.053 C 
BRANCH  12  13
HETATM   13  C   UNL     1      31.343 -15.158 -11.623  1.00  0.00    -0.027 C 
HETATM   14  C   UNL     1      31.324 -16.420 -11.153  1.00  0.00    -0.027 C 
BRANCH  14  15
HETATM   15  C   UNL     1      31.430 -16.829  -9.708  1.00  0.00     0.053 C 
BRANCH  15  16
HETATM   16  C   UNL     1      32.874 -17.164  -9.408  1.00  0.00    -0.027 C 
HETATM   17  C   UNL     1      33.600 -16.809  -8.328  1.00  0.00    -0.027 C 
BRANCH  17  18
HETATM   18  C   UNL     1      33.134 -16.004  -7.144  1.00  0.00     0.053 C 
BRANCH  18  19
HETATM   19  C   UNL     1      32.665 -16.914  -6.032  1.00  0.00    -0.027 C 
HETATM   20  C   UNL     1      31.396 -17.135  -5.632  1.00  0.00    -0.027 C 
BRANCH  20  21
HETATM   21  C   UNL     1      30.138 -16.566  -6.241  1.00  0.00     0.053 C 
BRANCH  21  22
HETATM   22  C   UNL     1      29.710 -15.312  -5.515  1.00  0.00    -0.027 C 
HETATM   23  C   UNL     1      29.798 -14.043  -5.958  1.00  0.00    -0.031 C 
BRANCH  23  24
HETATM   24  C   UNL     1      30.366 -13.592  -7.279  1.00  0.00     0.022 C 
HETATM   25  C   UNL     1      30.390 -12.075  -7.415  1.00  0.00     0.009 C 
ENDBRANCH  23  24
ENDBRANCH  21  22
ENDBRANCH  20  21
ENDBRANCH  18  19
ENDBRANCH  17  18
ENDBRANCH  15  16
ENDBRANCH  14  15
ENDBRANCH  12  13
ENDBRANCH  11  12
ENDBRANCH   9  10
ENDBRANCH   8   9
ENDBRANCH   6   7
ENDBRANCH   5   6
ENDBRANCH   3   5
ENDBRANCH   1   3
TORSDOF 15
ENDMDL
MODEL 15
REMARK VINA RESULT:      -5.0     20.958     24.813
REMARK  15 active torsions:
REMARK  status: ('A' for Active; 'I' for Inactive)
REMARK    1  A    between atoms: O_1  and  C_23 
REMARK    2  A    between atoms: C_3  and  C_7 
REMARK    3  A    between atoms: C_3  and  C_8 
REMARK    4  A    between atoms: C_4  and  C_10 
REMARK    5  A    between atoms: C_4  and  C_11 
REMARK    6  A    between atoms: C_5  and  C_12 
REMARK    7  A    between atoms: C_5  and  C_13 
REMARK    8  A    between atoms: C_6  and  C_15 
REMARK    9  A    between atoms: C_6  and  C_16 
REMARK   10  A    between atoms: C_7  and  C_23 
REMARK   11  A    between atoms: C_9  and  C_17 
REMARK   12  A    between atoms: C_9  and  C_18 
REMARK   13  A    between atoms: C_14  and  C_19 
REMARK   14  A    between atoms: C_14  and  C_20 
REMARK   15  A    between atoms: C_21  and  C_22 
ROOT
HETATM    1  O   UNL     1      27.772 -17.563 -13.368  1.00  0.00    -0.776 OA
HETATM    2  H   UNL     1      28.627 -17.925 -13.096  1.00  0.00     0.167 HD
ENDROOT
BRANCH   1   3
HETATM    3  C   UNL     1      27.222 -16.505 -12.735  1.00  0.00     0.139 C 
HETATM    4  O   UNL     1      26.167 -16.033 -13.133  1.00  0.00    -0.650 OA
BRANCH   3   5
HETATM    5  C   UNL     1      27.910 -15.911 -11.538  1.00  0.00     0.113 C 
BRANCH   5   6
HETATM    6  C   UNL     1      29.229 -15.242 -11.942  1.00  0.00     0.037 C 
BRANCH   6   7
HETATM    7  C   UNL     1      30.407 -16.083 -11.510  1.00  0.00    -0.030 C 
HETATM    8  C   UNL     1      30.825 -16.307 -10.246  1.00  0.00    -0.027 C 
BRANCH   8   9
HETATM    9  C   UNL     1      30.219 -15.772  -8.967  1.00  0.00     0.053 C 
BRANCH   9  10
HETATM   10  C   UNL     1      31.063 -16.148  -7.775  1.00  0.00    -0.027 C 
HETATM   11  C   UNL     1      31.984 -15.363  -7.187  1.00  0.00    -0.027 C 
BRANCH  11  12
HETATM   12  C   UNL     1      32.299 -13.942  -7.576  1.00  0.00     0.053 C 
BRANCH  12  13
HETATM   13  C   UNL     1      33.257 -13.903  -8.741  1.00  0.00    -0.027 C 
HETATM   14  C   UNL     1      33.338 -12.944  -9.682  1.00  0.00    -0.027 C 
BRANCH  14  15
HETATM   15  C   UNL     1      32.450 -11.733  -9.793  1.00  0.00     0.053 C 
BRANCH  15  16
HETATM   16  C   UNL     1      31.246 -12.096 -10.634  1.00  0.00    -0.027 C 
HETATM   17  C   UNL     1      29.969 -12.254 -10.229  1.00  0.00    -0.027 C 
BRANCH  17  18
HETATM   18  C   UNL     1      29.431 -12.088  -8.832  1.00  0.00     0.053 C 
BRANCH  18  19
HETATM   19  C   UNL     1      28.020 -12.620  -8.737  1.00  0.00    -0.027 C 
HETATM   20  C   UNL     1      27.525 -13.476  -7.821  1.00  0.00    -0.027 C 
BRANCH  20  21
HETATM   21  C   UNL     1      28.253 -14.063  -6.637  1.00  0.00     0.053 C 
BRANCH  21  22
HETATM   22  C   UNL     1      27.363 -15.018  -5.877  1.00  0.00    -0.027 C 
HETATM   23  C   UNL     1      26.927 -16.226  -6.285  1.00  0.00    -0.031 C 
BRANCH  23  24
HETATM   24  C   UNL     1      27.220 -16.886  -7.608  1.00  0.00     0.022 C 
HETATM   25  C   UNL     1      25.993 -16.958  -8.508  1.00  0.00     0.009 C 
ENDBRANCH  23  24
ENDBRANCH  21  22
ENDBRANCH  20  21
ENDBRANCH  18  19
ENDBRANCH  17  18
ENDBRANCH  15  16
ENDBRANCH  14  15
ENDBRANCH  12  13
ENDBRANCH  11  12
ENDBRANCH   9  10
ENDBRANCH   8   9
ENDBRANCH   6   7
ENDBRANCH   5   6
ENDBRANCH   3   5
ENDBRANCH   1   3
TORSDOF 15
ENDMDL
MODEL 16
REMARK VINA RESULT:      -5.0     21.742     24.323
REMARK  15 active torsions:
REMARK  status: ('A' for Active; 'I' for Inactive)
REMARK    1  A    between atoms: O_1  and  C_23 
REMARK    2  A    between atoms: C_3  and  C_7 
REMARK    3  A    between atoms: C_3  and  C_8 
REMARK    4  A    between atoms: C_4  and  C_10 
REMARK    5  A    between atoms: C_4  and  C_11 
REMARK    6  A    between atoms: C_5  and  C_12 
REMARK    7  A    between atoms: C_5  and  C_13 
REMARK    8  A    between atoms: C_6  and  C_15 
REMARK    9  A    between atoms: C_6  and  C_16 
REMARK   10  A    between atoms: C_7  and  C_23 
REMARK   11  A    between atoms: C_9  and  C_17 
REMARK   12  A    between atoms: C_9  and  C_18 
REMARK   13  A    between atoms: C_14  and  C_19 
REMARK   14  A    between atoms: C_14  and  C_20 
REMARK   15  A    between atoms: C_21  and  C_22 
ROOT
HETATM    1  O   UNL     1      27.392 -13.961  -5.295  1.00  0.00    -0.776 OA
HETATM    2  H   UNL     1      27.417 -13.095  -5.725  1.00  0.00     0.167 HD
ENDROOT
BRANCH   1   3
HETATM    3  C   UNL     1      27.506 -15.103  -6.006  1.00  0.00     0.139 C 
HETATM    4  O   UNL     1      27.948 -16.113  -5.477  1.00  0.00    -0.650 OA
BRANCH   3   5
HETATM    5  C   UNL     1      27.085 -15.129  -7.448  1.00  0.00     0.113 C 
BRANCH   5   6
HETATM    6  C   UNL     1      27.208 -16.542  -8.028  1.00  0.00     0.037 C 
BRANCH   6   7
HETATM    7  C   UNL     1      26.624 -16.599  -9.420  1.00  0.00    -0.030 C 
HETATM    8  C   UNL     1      27.081 -15.963 -10.519  1.00  0.00    -0.027 C 
BRANCH   8   9
HETATM    9  C   UNL     1      28.281 -15.046 -10.621  1.00  0.00     0.053 C 
BRANCH   9  10
HETATM   10  C   UNL     1      29.147 -15.423 -11.796  1.00  0.00    -0.027 C 
HETATM   11  C   UNL     1      30.225 -16.227 -11.752  1.00  0.00    -0.027 C 
BRANCH  11  12
HETATM   12  C   UNL     1      30.730 -16.945 -10.528  1.00  0.00     0.053 C 
BRANCH  12  13
HETATM   13  C   UNL     1      31.898 -16.212  -9.918  1.00  0.00    -0.027 C 
HETATM   14  C   UNL     1      31.900 -15.529  -8.758  1.00  0.00    -0.027 C 
BRANCH  14  15
HETATM   15  C   UNL     1      30.717 -15.315  -7.852  1.00  0.00     0.053 C 
BRANCH  15  16
HETATM   16  C   UNL     1      31.221 -14.855  -6.502  1.00  0.00    -0.027 C 
HETATM   17  C   UNL     1      31.040 -13.655  -5.915  1.00  0.00    -0.027 C 
BRANCH  17  18
HETATM   18  C   UNL     1      30.268 -12.483  -6.461  1.00  0.00     0.053 C 
BRANCH  18  19
HETATM   19  C   UNL     1      31.178 -11.563  -7.242  1.00  0.00    -0.027 C 
HETATM   20  C   UNL     1      31.250 -11.422  -8.581  1.00  0.00    -0.027 C 
BRANCH  20  21
HETATM   21  C   UNL     1      30.397 -12.113  -9.616  1.00  0.00     0.053 C 
BRANCH  21  22
HETATM   22  C   UNL     1      31.240 -12.595 -10.773  1.00  0.00    -0.027 C 
HETATM   23  C   UNL     1      31.119 -12.250 -12.070  1.00  0.00    -0.031 C 
BRANCH  23  24
HETATM   24  C   UNL     1      30.095 -11.314 -12.657  1.00  0.00     0.022 C 
HETATM   25  C   UNL     1      29.009 -12.049 -13.432  1.00  0.00     0.009 C 
ENDBRANCH  23  24
ENDBRANCH  21  22
ENDBRANCH  20  21
ENDBRANCH  18  19
ENDBRANCH  17  18
ENDBRANCH  15  16
ENDBRANCH  14  15
ENDBRANCH  12  13
ENDBRANCH  11  12
ENDBRANCH   9  10
ENDBRANCH   8   9
ENDBRANCH   6   7
ENDBRANCH   5   6
ENDBRANCH   3   5
ENDBRANCH   1   3
TORSDOF 15
ENDMDL
MODEL 17
REMARK VINA RESULT:      -4.9     19.884     24.051
REMARK  15 active torsions:
REMARK  status: ('A' for Active; 'I' for Inactive)
REMARK    1  A    between atoms: O_1  and  C_23 
REMARK    2  A    between atoms: C_3  and  C_7 
REMARK    3  A    between atoms: C_3  and  C_8 
REMARK    4  A    between atoms: C_4  and  C_10 
REMARK    5  A    between atoms: C_4  and  C_11 
REMARK    6  A    between atoms: C_5  and  C_12 
REMARK    7  A    between atoms: C_5  and  C_13 
REMARK    8  A    between atoms: C_6  and  C_15 
REMARK    9  A    between atoms: C_6  and  C_16 
REMARK   10  A    between atoms: C_7  and  C_23 
REMARK   11  A    between atoms: C_9  and  C_17 
REMARK   12  A    between atoms: C_9  and  C_18 
REMARK   13  A    between atoms: C_14  and  C_19 
REMARK   14  A    between atoms: C_14  and  C_20 
REMARK   15  A    between atoms: C_21  and  C_22 
ROOT
HETATM    1  O   UNL     1      35.660 -11.057  -9.415  1.00  0.00    -0.776 OA
HETATM    2  H   UNL     1      36.332 -10.362  -9.399  1.00  0.00     0.167 HD
ENDROOT
BRANCH   1   3
HETATM    3  C   UNL     1      34.648 -11.037 -10.308  1.00  0.00     0.139 C 
HETATM    4  O   UNL     1      34.887 -11.091 -11.506  1.00  0.00    -0.650 OA
BRANCH   3   5
HETATM    5  C   UNL     1      33.228 -10.954  -9.825  1.00  0.00     0.113 C 
BRANCH   5   6
HETATM    6  C   UNL     1      33.177 -10.748  -8.307  1.00  0.00     0.037 C 
BRANCH   6   7
HETATM    7  C   UNL     1      31.748 -10.641  -7.831  1.00  0.00    -0.030 C 
HETATM    8  C   UNL     1      31.183 -11.306  -6.801  1.00  0.00    -0.027 C 
BRANCH   8   9
HETATM    9  C   UNL     1      31.842 -12.313  -5.882  1.00  0.00     0.053 C 
BRANCH   9  10
HETATM   10  C   UNL     1      31.188 -12.307  -4.524  1.00  0.00    -0.027 C 
HETATM   11  C   UNL     1      30.181 -13.109  -4.133  1.00  0.00    -0.027 C 
BRANCH  11  12
HETATM   12  C   UNL     1      29.561 -14.202  -4.965  1.00  0.00     0.053 C 
BRANCH  12  13
HETATM   13  C   UNL     1      28.500 -13.644  -5.881  1.00  0.00    -0.027 C 
HETATM   14  C   UNL     1      27.443 -14.309  -6.385  1.00  0.00    -0.027 C 
BRANCH  14  15
HETATM   15  C   UNL     1      27.130 -15.766  -6.175  1.00  0.00     0.053 C 
BRANCH  15  16
HETATM   16  C   UNL     1      27.981 -16.582  -7.122  1.00  0.00    -0.027 C 
HETATM   17  C   UNL     1      27.766 -16.822  -8.432  1.00  0.00    -0.027 C 
BRANCH  17  18
HETATM   18  C   UNL     1      26.626 -16.313  -9.274  1.00  0.00     0.053 C 
BRANCH  18  19
HETATM   19  C   UNL     1      27.114 -15.915 -10.647  1.00  0.00    -0.027 C 
HETATM   20  C   UNL     1      27.637 -14.729 -11.021  1.00  0.00    -0.027 C 
BRANCH  20  21
HETATM   21  C   UNL     1      27.909 -13.536 -10.138  1.00  0.00     0.053 C 
BRANCH  21  22
HETATM   22  C   UNL     1      29.302 -13.001 -10.372  1.00  0.00    -0.027 C 
HETATM   23  C   UNL     1      30.443 -13.415  -9.787  1.00  0.00    -0.031 C 
BRANCH  23  24
HETATM   24  C   UNL     1      30.578 -14.499  -8.750  1.00  0.00     0.022 C 
HETATM   25  C   UNL     1      32.029 -14.880  -8.488  1.00  0.00     0.009 C 
ENDBRANCH  23  24
ENDBRANCH  21  22
ENDBRANCH  20  21
ENDBRANCH  18  19
ENDBRANCH  17  18
ENDBRANCH  15  16
ENDBRANCH  14  15
ENDBRANCH  12  13
ENDBRANCH  11  12
ENDBRANCH   9  10
ENDBRANCH   8   9
ENDBRANCH   6   7
ENDBRANCH   5   6
ENDBRANCH   3   5
ENDBRANCH   1   3
TORSDOF 15
ENDMDL
MODEL 18
REMARK VINA RESULT:      -4.9     20.672     23.758
REMARK  15 active torsions:
REMARK  status: ('A' for Active; 'I' for Inactive)
REMARK    1  A    between atoms: O_1  and  C_23 
REMARK    2  A    between atoms: C_3  and  C_7 
REMARK    3  A    between atoms: C_3  and  C_8 
REMARK    4  A    between atoms: C_4  and  C_10 
REMARK    5  A    between atoms: C_4  and  C_11 
REMARK    6  A    between atoms: C_5  and  C_12 
REMARK    7  A    between atoms: C_5  and  C_13 
REMARK    8  A    between atoms: C_6  and  C_15 
REMARK    9  A    between atoms: C_6  and  C_16 
REMARK   10  A    between atoms: C_7  and  C_23 
REMARK   11  A    between atoms: C_9  and  C_17 
REMARK   12  A    between atoms: C_9  and  C_18 
REMARK   13  A    between atoms: C_14  and  C_19 
REMARK   14  A    between atoms: C_14  and  C_20 
REMARK   15  A    between atoms: C_21  and  C_22 
ROOT
HETATM    1  O   UNL     1      35.934 -18.543 -15.339  1.00  0.00    -0.776 OA
HETATM    2  H   UNL     1      36.786 -18.493 -14.884  1.00  0.00     0.167 HD
ENDROOT
BRANCH   1   3
HETATM    3  C   UNL     1      34.774 -18.299 -14.692  1.00  0.00     0.139 C 
HETATM    4  O   UNL     1      34.632 -18.661 -13.533  1.00  0.00    -0.650 OA
BRANCH   3   5
HETATM    5  C   UNL     1      33.662 -17.580 -15.401  1.00  0.00     0.113 C 
BRANCH   5   6
HETATM    6  C   UNL     1      32.875 -16.695 -14.427  1.00  0.00     0.037 C 
BRANCH   6   7
HETATM    7  C   UNL     1      31.396 -16.765 -14.722  1.00  0.00    -0.030 C 
HETATM    8  C   UNL     1      30.485 -15.785 -14.541  1.00  0.00    -0.027 C 
BRANCH   8   9
HETATM    9  C   UNL     1      30.726 -14.391 -14.003  1.00  0.00     0.053 C 
BRANCH   9  10
HETATM   10  C   UNL     1      29.436 -13.612 -13.933  1.00  0.00    -0.027 C 
HETATM   11  C   UNL     1      28.865 -12.946 -14.953  1.00  0.00    -0.027 C 
BRANCH  11  12
HETATM   12  C   UNL     1      29.380 -12.905 -16.368  1.00  0.00     0.053 C 
BRANCH  12  13
HETATM   13  C   UNL     1      28.254 -13.089 -17.356  1.00  0.00    -0.027 C 
HETATM   14  C   UNL     1      27.760 -14.259 -17.801  1.00  0.00    -0.027 C 
BRANCH  14  15
HETATM   15  C   UNL     1      28.266 -15.630 -17.439  1.00  0.00     0.053 C 
BRANCH  15  16
HETATM   16  C   UNL     1      27.079 -16.507 -17.104  1.00  0.00    -0.027 C 
HETATM   17  C   UNL     1      26.495 -16.687 -15.902  1.00  0.00    -0.027 C 
BRANCH  17  18
HETATM   18  C   UNL     1      26.878 -16.036 -14.599  1.00  0.00     0.053 C 
BRANCH  18  19
HETATM   19  C   UNL     1      26.522 -16.928 -13.432  1.00  0.00    -0.027 C 
HETATM   20  C   UNL     1      26.774 -16.711 -12.125  1.00  0.00    -0.027 C 
BRANCH  20  21
HETATM   21  C   UNL     1      27.425 -15.495 -11.514  1.00  0.00     0.053 C 
BRANCH  21  22
HETATM   22  C   UNL     1      28.057 -15.833 -10.184  1.00  0.00    -0.027 C 
HETATM   23  C   UNL     1      29.306 -16.290  -9.968  1.00  0.00    -0.031 C 
BRANCH  23  24
HETATM   24  C   UNL     1      30.348 -16.583 -11.016  1.00  0.00     0.022 C 
HETATM   25  C   UNL     1      31.761 -16.588 -10.447  1.00  0.00     0.009 C 
ENDBRANCH  23  24
ENDBRANCH  21  22
ENDBRANCH  20  21
ENDBRANCH  18  19
ENDBRANCH  17  18
ENDBRANCH  15  16
ENDBRANCH  14  15
ENDBRANCH  12  13
ENDBRANCH  11  12
ENDBRANCH   9  10
ENDBRANCH   8   9
ENDBRANCH   6   7
ENDBRANCH   5   6
ENDBRANCH   3   5
ENDBRANCH   1   3
TORSDOF 15
ENDMDL
MODEL 19
REMARK VINA RESULT:      -4.9     22.679     25.186
REMARK  15 active torsions:
REMARK  status: ('A' for Active; 'I' for Inactive)
REMARK    1  A    between atoms: O_1  and  C_23 
REMARK    2  A    between atoms: C_3  and  C_7 
REMARK    3  A    between atoms: C_3  and  C_8 
REMARK    4  A    between atoms: C_4  and  C_10 
REMARK    5  A    between atoms: C_4  and  C_11 
REMARK    6  A    between atoms: C_5  and  C_12 
REMARK    7  A    between atoms: C_5  and  C_13 
REMARK    8  A    between atoms: C_6  and  C_15 
REMARK    9  A    between atoms: C_6  and  C_16 
REMARK   10  A    between atoms: C_7  and  C_23 
REMARK   11  A    between atoms: C_9  and  C_17 
REMARK   12  A    between atoms: C_9  and  C_18 
REMARK   13  A    between atoms: C_14  and  C_19 
REMARK   14  A    between atoms: C_14  and  C_20 
REMARK   15  A    between atoms: C_21  and  C_22 
ROOT
HETATM    1  O   UNL     1      26.972 -14.301  -3.036  1.00  0.00    -0.776 OA
HETATM    2  H   UNL     1      26.804 -13.358  -2.903  1.00  0.00     0.167 HD
ENDROOT
BRANCH   1   3
HETATM    3  C   UNL     1      27.364 -15.096  -2.018  1.00  0.00     0.139 C 
HETATM    4  O   UNL     1      27.052 -14.818  -0.869  1.00  0.00    -0.650 OA
BRANCH   3   5
HETATM    5  C   UNL     1      28.180 -16.325  -2.302  1.00  0.00     0.113 C 
BRANCH   5   6
HETATM    6  C   UNL     1      28.831 -16.241  -3.688  1.00  0.00     0.037 C 
BRANCH   6   7
HETATM    7  C   UNL     1      30.314 -15.984  -3.564  1.00  0.00    -0.030 C 
HETATM    8  C   UNL     1      31.272 -16.313  -4.456  1.00  0.00    -0.027 C 
BRANCH   8   9
HETATM    9  C   UNL     1      31.092 -17.012  -5.786  1.00  0.00     0.053 C 
BRANCH   9  10
HETATM   10  C   UNL     1      32.421 -17.447  -6.349  1.00  0.00    -0.027 C 
HETATM   11  C   UNL     1      32.933 -17.073  -7.536  1.00  0.00    -0.027 C 
BRANCH  11  12
HETATM   12  C   UNL     1      32.294 -16.103  -8.495  1.00  0.00     0.053 C 
BRANCH  12  13
HETATM   13  C   UNL     1      31.686 -16.829  -9.669  1.00  0.00    -0.027 C 
HETATM   14  C   UNL     1      30.467 -16.617 -10.201  1.00  0.00    -0.027 C 
BRANCH  14  15
HETATM   15  C   UNL     1      29.438 -15.640  -9.698  1.00  0.00     0.053 C 
BRANCH  15  16
HETATM   16  C   UNL     1      28.748 -16.245  -8.495  1.00  0.00    -0.027 C 
HETATM   17  C   UNL     1      27.953 -15.627  -7.599  1.00  0.00    -0.027 C 
BRANCH  17  18
HETATM   18  C   UNL     1      27.543 -14.178  -7.593  1.00  0.00     0.053 C 
BRANCH  18  19
HETATM   19  C   UNL     1      27.903 -13.527  -6.278  1.00  0.00    -0.027 C 
HETATM   20  C   UNL     1      29.136 -13.223  -5.822  1.00  0.00    -0.027 C 
BRANCH  20  21
HETATM   21  C   UNL     1      30.446 -13.413  -6.547  1.00  0.00     0.053 C 
BRANCH  21  22
HETATM   22  C   UNL     1      31.060 -12.080  -6.906  1.00  0.00    -0.027 C 
HETATM   23  C   UNL     1      31.217 -11.561  -8.140  1.00  0.00    -0.031 C 
BRANCH  23  24
HETATM   24  C   UNL     1      30.829 -12.211  -9.442  1.00  0.00     0.022 C 
HETATM   25  C   UNL     1      29.377 -11.943  -9.817  1.00  0.00     0.009 C 
ENDBRANCH  23  24
ENDBRANCH  21  22
ENDBRANCH  20  21
ENDBRANCH  18  19
ENDBRANCH  17  18
ENDBRANCH  15  16
ENDBRANCH  14  15
ENDBRANCH  12  13
ENDBRANCH  11  12
ENDBRANCH   9  10
ENDBRANCH   8   9
ENDBRANCH   6   7
ENDBRANCH   5   6
ENDBRANCH   3   5
ENDBRANCH   1   3
TORSDOF 15
ENDMDL
MODEL 20
REMARK VINA RESULT:      -4.9     19.227     23.046
REMARK  15 active torsions:
REMARK  status: ('A' for Active; 'I' for Inactive)
REMARK    1  A    between atoms: O_1  and  C_23 
REMARK    2  A    between atoms: C_3  and  C_7 
REMARK    3  A    between atoms: C_3  and  C_8 
REMARK    4  A    between atoms: C_4  and  C_10 
REMARK    5  A    between atoms: C_4  and  C_11 
REMARK    6  A    between atoms: C_5  and  C_12 
REMARK    7  A    between atoms: C_5  and  C_13 
REMARK    8  A    between atoms: C_6  and  C_15 
REMARK    9  A    between atoms: C_6  and  C_16 
REMARK   10  A    between atoms: C_7  and  C_23 
REMARK   11  A    between atoms: C_9  and  C_17 
REMARK   12  A    between atoms: C_9  and  C_18 
REMARK   13  A    between atoms: C_14  and  C_19 
REMARK   14  A    between atoms: C_14  and  C_20 
REMARK   15  A    between atoms: C_21  and  C_22 
ROOT
HETATM    1  O   UNL     1      35.307  -8.837 -13.167  1.00  0.00    -0.776 OA
HETATM    2  H   UNL     1      36.175  -8.808 -12.741  1.00  0.00     0.167 HD
ENDROOT
BRANCH   1   3
HETATM    3  C   UNL     1      34.500  -9.912 -13.048  1.00  0.00     0.139 C 
HETATM    4  O   UNL     1      34.873 -11.006 -13.447  1.00  0.00    -0.650 OA
BRANCH   3   5
HETATM    5  C   UNL     1      33.144  -9.761 -12.419  1.00  0.00     0.113 C 
BRANCH   5   6
HETATM    6  C   UNL     1      32.813 -10.968 -11.534  1.00  0.00     0.037 C 
BRANCH   6   7
HETATM    7  C   UNL     1      31.359 -11.349 -11.675  1.00  0.00    -0.030 C 
HETATM    8  C   UNL     1      30.741 -12.415 -11.123  1.00  0.00    -0.027 C 
BRANCH   8   9
HETATM    9  C   UNL     1      31.354 -13.478 -10.236  1.00  0.00     0.053 C 
BRANCH   9  10
HETATM   10  C   UNL     1      32.300 -14.352 -11.021  1.00  0.00    -0.027 C 
HETATM   11  C   UNL     1      31.987 -15.522 -11.606  1.00  0.00    -0.027 C 
BRANCH  11  12
HETATM   12  C   UNL     1      30.616 -16.145 -11.633  1.00  0.00     0.053 C 
BRANCH  12  13
HETATM   13  C   UNL     1      29.937 -15.894 -12.956  1.00  0.00    -0.027 C 
HETATM   14  C   UNL     1      28.783 -15.230 -13.153  1.00  0.00    -0.027 C 
BRANCH  14  15
HETATM   15  C   UNL     1      27.905 -14.640 -12.082  1.00  0.00     0.053 C 
BRANCH  15  16
HETATM   16  C   UNL     1      26.999 -15.729 -11.549  1.00  0.00    -0.027 C 
HETATM   17  C   UNL     1      26.983 -16.262 -10.311  1.00  0.00    -0.027 C 
BRANCH  17  18
HETATM   18  C   UNL     1      27.860 -15.883  -9.147  1.00  0.00     0.053 C 
BRANCH  18  19
HETATM   19  C   UNL     1      27.061 -15.149  -8.094  1.00  0.00    -0.027 C 
HETATM   20  C   UNL     1      27.332 -13.946  -7.548  1.00  0.00    -0.027 C 
BRANCH  20  21
HETATM   21  C   UNL     1      28.472 -13.023  -7.902  1.00  0.00     0.053 C 
BRANCH  21  22
HETATM   22  C   UNL     1      29.427 -12.878  -6.740  1.00  0.00    -0.027 C 
HETATM   23  C   UNL     1      30.403 -11.960  -6.596  1.00  0.00    -0.031 C 
BRANCH  23  24
HETATM   24  C   UNL     1      30.771 -10.880  -7.581  1.00  0.00     0.022 C 
HETATM   25  C   UNL     1      32.271 -10.810  -7.836  1.00  0.00     0.009 C 
ENDBRANCH  23  24
ENDBRANCH  21  22
ENDBRANCH  20  21
ENDBRANCH  18  19
ENDBRANCH  17  18
ENDBRANCH  15  16
ENDBRANCH  14  15
ENDBRANCH  12  13
ENDBRANCH  11  12
ENDBRANCH   9  10
ENDBRANCH   8   9
ENDBRANCH   6   7
ENDBRANCH   5   6
ENDBRANCH   3   5
ENDBRANCH   1   3
TORSDOF 15
ENDMDL
