MODEL 1
REMARK VINA RESULT:      -4.8      0.000      0.000
REMARK  16 active torsions:
REMARK  status: ('A' for Active; 'I' for Inactive)
REMARK    1  A    between atoms: O_1  and  C_20 
REMARK    2  A    between atoms: C_3  and  C_4 
REMARK    3  A    between atoms: C_3  and  C_5 
REMARK    4  A    between atoms: C_4  and  C_8 
REMARK    5  A    between atoms: C_5  and  C_11 
REMARK    6  A    between atoms: C_6  and  C_7 
REMARK    7  A    between atoms: C_6  and  C_9 
REMARK    8  A    between atoms: C_7  and  C_10 
REMARK    9  A    between atoms: C_8  and  C_12 
REMARK   10  A    between atoms: C_9  and  C_13 
REMARK   11  A    between atoms: C_10  and  C_14 
REMARK   12  A    between atoms: C_11  and  C_15 
REMARK   13  A    between atoms: C_12  and  C_16 
REMARK   14  A    between atoms: C_13  and  C_17 
REMARK   15  A    between atoms: C_14  and  C_18 
REMARK   16  A    between atoms: C_18  and  C_20 
ROOT
HETATM    1  O   UNL     1      54.799  -7.134 -20.171  1.00  0.00    -0.776 OA
HETATM    2  H   UNL     1      55.681  -7.441 -19.917  1.00  0.00     0.167 HD
ENDROOT
BRANCH   1   3
HETATM    3  C   UNL     1      53.714  -7.926 -20.046  1.00  0.00     0.139 C 
HETATM    4  O   UNL     1      53.194  -8.405 -21.046  1.00  0.00    -0.650 OA
BRANCH   3   5
HETATM    5  C   UNL     1      53.166  -8.205 -18.672  1.00  0.00     0.110 C 
BRANCH   5   6
HETATM    6  C   UNL     1      54.097  -7.735 -17.545  1.00  0.00     0.010 C 
BRANCH   6   7
HETATM    7  C   UNL     1      53.297  -7.105 -16.398  1.00  0.00     0.001 C 
BRANCH   7   8
HETATM    8  C   UNL     1      53.028  -8.130 -15.291  1.00  0.00     0.000 C 
BRANCH   8   9
HETATM    9  C   UNL     1      54.202  -8.201 -14.308  1.00  0.00     0.000 C 
BRANCH   9  10
HETATM   10  C   UNL     1      53.794  -7.660 -12.934  1.00  0.00     0.004 C 
BRANCH  10  11
HETATM   11  C   UNL     1      52.279  -7.736 -12.731  1.00  0.00     0.027 C 
BRANCH  11  12
HETATM   12  C   UNL     1      51.869  -6.771 -11.644  1.00  0.00    -0.031 C 
HETATM   13  C   UNL     1      50.640  -6.252 -11.448  1.00  0.00    -0.031 C 
BRANCH  13  14
HETATM   14  C   UNL     1      49.398  -6.510 -12.275  1.00  0.00     0.027 C 
BRANCH  14  15
HETATM   15  C   UNL     1      49.418  -5.695 -13.580  1.00  0.00     0.004 C 
BRANCH  15  16
HETATM   16  C   UNL     1      49.450  -6.549 -14.863  1.00  0.00     0.000 C 
BRANCH  16  17
HETATM   17  C   UNL     1      49.558  -5.710 -16.147  1.00  0.00     0.000 C 
BRANCH  17  18
HETATM   18  C   UNL     1      49.979  -6.577 -17.341  1.00  0.00     0.000 C 
BRANCH  18  19
HETATM   19  C   UNL     1      49.548  -5.936 -18.665  1.00  0.00    -0.000 C 
BRANCH  19  20
HETATM   20  C   UNL     1      49.977  -6.796 -19.860  1.00  0.00    -0.005 C 
HETATM   21  C   UNL     1      50.374  -5.927 -21.049  1.00  0.00     0.005 C 
ENDBRANCH  19  20
ENDBRANCH  18  19
ENDBRANCH  17  18
ENDBRANCH  16  17
ENDBRANCH  15  16
ENDBRANCH  14  15
ENDBRANCH  13  14
ENDBRANCH  11  12
ENDBRANCH  10  11
ENDBRANCH   9  10
ENDBRANCH   8   9
ENDBRANCH   7   8
ENDBRANCH   6   7
ENDBRANCH   5   6
ENDBRANCH   3   5
ENDBRANCH   1   3
TORSDOF 16
ENDMDL
MODEL 2
REMARK VINA RESULT:      -4.6      2.500      4.617
REMARK  16 active torsions:
REMARK  status: ('A' for Active; 'I' for Inactive)
REMARK    1  A    between atoms: O_1  and  C_20 
REMARK    2  A    between atoms: C_3  and  C_4 
REMARK    3  A    between atoms: C_3  and  C_5 
REMARK    4  A    between atoms: C_4  and  C_8 
REMARK    5  A    between atoms: C_5  and  C_11 
REMARK    6  A    between atoms: C_6  and  C_7 
REMARK    7  A    between atoms: C_6  and  C_9 
REMARK    8  A    between atoms: C_7  and  C_10 
REMARK    9  A    between atoms: C_8  and  C_12 
REMARK   10  A    between atoms: C_9  and  C_13 
REMARK   11  A    between atoms: C_10  and  C_14 
REMARK   12  A    between atoms: C_11  and  C_15 
REMARK   13  A    between atoms: C_12  and  C_16 
REMARK   14  A    between atoms: C_13  and  C_17 
REMARK   15  A    between atoms: C_14  and  C_18 
REMARK   16  A    between atoms: C_18  and  C_20 
ROOT
HETATM    1  O   UNL     1      47.654  -7.938 -17.607  1.00  0.00    -0.776 OA
HETATM    2  H   UNL     1      46.833  -8.450 -17.617  1.00  0.00     0.167 HD
ENDROOT
BRANCH   1   3
HETATM    3  C   UNL     1      47.760  -6.764 -18.265  1.00  0.00     0.139 C 
HETATM    4  O   UNL     1      46.774  -6.277 -18.801  1.00  0.00    -0.650 OA
BRANCH   3   5
HETATM    5  C   UNL     1      49.100  -6.078 -18.323  1.00  0.00     0.110 C 
BRANCH   5   6
HETATM    6  C   UNL     1      49.374  -5.186 -17.104  1.00  0.00     0.010 C 
BRANCH   6   7
HETATM    7  C   UNL     1      50.426  -5.820 -16.185  1.00  0.00     0.001 C 
BRANCH   7   8
HETATM    8  C   UNL     1      49.758  -6.618 -15.059  1.00  0.00     0.000 C 
BRANCH   8   9
HETATM    9  C   UNL     1      48.985  -5.694 -14.111  1.00  0.00     0.000 C 
BRANCH   9  10
HETATM   10  C   UNL     1      49.569  -5.754 -12.696  1.00  0.00     0.004 C 
BRANCH  10  11
HETATM   11  C   UNL     1      50.540  -6.928 -12.543  1.00  0.00     0.027 C 
BRANCH  11  12
HETATM   12  C   UNL     1      51.641  -6.546 -11.583  1.00  0.00    -0.031 C 
HETATM   13  C   UNL     1      52.874  -7.088 -11.513  1.00  0.00    -0.031 C 
BRANCH  13  14
HETATM   14  C   UNL     1      53.430  -8.205 -12.371  1.00  0.00     0.027 C 
BRANCH  14  15
HETATM   15  C   UNL     1      52.941  -8.084 -13.826  1.00  0.00     0.004 C 
BRANCH  15  16
HETATM   16  C   UNL     1      54.071  -8.037 -14.875  1.00  0.00     0.000 C 
BRANCH  16  17
HETATM   17  C   UNL     1      53.849  -6.968 -15.957  1.00  0.00     0.000 C 
BRANCH  17  18
HETATM   18  C   UNL     1      54.019  -7.560 -17.362  1.00  0.00     0.000 C 
BRANCH  18  19
HETATM   19  C   UNL     1      52.702  -8.160 -17.869  1.00  0.00    -0.000 C 
BRANCH  19  20
HETATM   20  C   UNL     1      52.525  -7.914 -19.371  1.00  0.00    -0.005 C 
HETATM   21  C   UNL     1      53.814  -8.204 -20.133  1.00  0.00     0.005 C 
ENDBRANCH  19  20
ENDBRANCH  18  19
ENDBRANCH  17  18
ENDBRANCH  16  17
ENDBRANCH  15  16
ENDBRANCH  14  15
ENDBRANCH  13  14
ENDBRANCH  11  12
ENDBRANCH  10  11
ENDBRANCH   9  10
ENDBRANCH   8   9
ENDBRANCH   7   8
ENDBRANCH   6   7
ENDBRANCH   5   6
ENDBRANCH   3   5
ENDBRANCH   1   3
TORSDOF 16
ENDMDL
MODEL 3
REMARK VINA RESULT:      -4.6      2.596      5.984
REMARK  16 active torsions:
REMARK  status: ('A' for Active; 'I' for Inactive)
REMARK    1  A    between atoms: O_1  and  C_20 
REMARK    2  A    between atoms: C_3  and  C_4 
REMARK    3  A    between atoms: C_3  and  C_5 
REMARK    4  A    between atoms: C_4  and  C_8 
REMARK    5  A    between atoms: C_5  and  C_11 
REMARK    6  A    between atoms: C_6  and  C_7 
REMARK    7  A    between atoms: C_6  and  C_9 
REMARK    8  A    between atoms: C_7  and  C_10 
REMARK    9  A    between atoms: C_8  and  C_12 
REMARK   10  A    between atoms: C_9  and  C_13 
REMARK   11  A    between atoms: C_10  and  C_14 
REMARK   12  A    between atoms: C_11  and  C_15 
REMARK   13  A    between atoms: C_12  and  C_16 
REMARK   14  A    between atoms: C_13  and  C_17 
REMARK   15  A    between atoms: C_14  and  C_18 
REMARK   16  A    between atoms: C_18  and  C_20 
ROOT
HETATM    1  O   UNL     1      53.005  -9.865 -14.189  1.00  0.00    -0.776 OA
HETATM    2  H   UNL     1      52.411 -10.151 -14.897  1.00  0.00     0.167 HD
ENDROOT
BRANCH   1   3
HETATM    3  C   UNL     1      53.076  -8.573 -13.806  1.00  0.00     0.139 C 
HETATM    4  O   UNL     1      52.307  -8.149 -12.954  1.00  0.00    -0.650 OA
BRANCH   3   5
HETATM    5  C   UNL     1      54.107  -7.678 -14.442  1.00  0.00     0.110 C 
BRANCH   5   6
HETATM    6  C   UNL     1      54.259  -7.909 -15.951  1.00  0.00     0.010 C 
BRANCH   6   7
HETATM    7  C   UNL     1      53.123  -7.231 -16.728  1.00  0.00     0.001 C 
BRANCH   7   8
HETATM    8  C   UNL     1      52.751  -8.042 -17.973  1.00  0.00     0.000 C 
BRANCH   8   9
HETATM    9  C   UNL     1      53.999  -8.416 -18.781  1.00  0.00     0.000 C 
BRANCH   9  10
HETATM   10  C   UNL     1      54.068  -7.605 -20.080  1.00  0.00     0.004 C 
BRANCH  10  11
HETATM   11  C   UNL     1      52.929  -7.977 -21.032  1.00  0.00     0.027 C 
BRANCH  11  12
HETATM   12  C   UNL     1      52.222  -6.722 -21.484  1.00  0.00    -0.031 C 
HETATM   13  C   UNL     1      51.061  -6.233 -21.003  1.00  0.00    -0.031 C 
BRANCH  13  14
HETATM   14  C   UNL     1      50.201  -6.833 -19.911  1.00  0.00     0.027 C 
BRANCH  14  15
HETATM   15  C   UNL     1      49.086  -5.862 -19.484  1.00  0.00     0.004 C 
BRANCH  15  16
HETATM   16  C   UNL     1      48.252  -6.341 -18.278  1.00  0.00     0.000 C 
BRANCH  16  17
HETATM   17  C   UNL     1      48.196  -5.315 -17.134  1.00  0.00     0.000 C 
BRANCH  17  18
HETATM   18  C   UNL     1      49.585  -5.094 -16.521  1.00  0.00     0.000 C 
BRANCH  18  19
HETATM   19  C   UNL     1      50.111  -6.381 -15.874  1.00  0.00    -0.000 C 
BRANCH  19  20
HETATM   20  C   UNL     1      49.746  -6.440 -14.386  1.00  0.00    -0.005 C 
HETATM   21  C   UNL     1      48.891  -7.665 -14.078  1.00  0.00     0.005 C 
ENDBRANCH  19  20
ENDBRANCH  18  19
ENDBRANCH  17  18
ENDBRANCH  16  17
ENDBRANCH  15  16
ENDBRANCH  14  15
ENDBRANCH  13  14
ENDBRANCH  11  12
ENDBRANCH  10  11
ENDBRANCH   9  10
ENDBRANCH   8   9
ENDBRANCH   7   8
ENDBRANCH   6   7
ENDBRANCH   5   6
ENDBRANCH   3   5
ENDBRANCH   1   3
TORSDOF 16
ENDMDL
MODEL 4
REMARK VINA RESULT:      -4.5      1.867      3.220
REMARK  16 active torsions:
REMARK  status: ('A' for Active; 'I' for Inactive)
REMARK    1  A    between atoms: O_1  and  C_20 
REMARK    2  A    between atoms: C_3  and  C_4 
REMARK    3  A    between atoms: C_3  and  C_5 
REMARK    4  A    between atoms: C_4  and  C_8 
REMARK    5  A    between atoms: C_5  and  C_11 
REMARK    6  A    between atoms: C_6  and  C_7 
REMARK    7  A    between atoms: C_6  and  C_9 
REMARK    8  A    between atoms: C_7  and  C_10 
REMARK    9  A    between atoms: C_8  and  C_12 
REMARK   10  A    between atoms: C_9  and  C_13 
REMARK   11  A    between atoms: C_10  and  C_14 
REMARK   12  A    between atoms: C_11  and  C_15 
REMARK   13  A    between atoms: C_12  and  C_16 
REMARK   14  A    between atoms: C_13  and  C_17 
REMARK   15  A    between atoms: C_14  and  C_18 
REMARK   16  A    between atoms: C_18  and  C_20 
ROOT
HETATM    1  O   UNL     1      53.357  -8.792 -20.748  1.00  0.00    -0.776 OA
HETATM    2  H   UNL     1      53.782  -8.765 -21.618  1.00  0.00     0.167 HD
ENDROOT
BRANCH   1   3
HETATM    3  C   UNL     1      53.845  -8.091 -19.703  1.00  0.00     0.139 C 
HETATM    4  O   UNL     1      54.977  -7.630 -19.757  1.00  0.00    -0.650 OA
BRANCH   3   5
HETATM    5  C   UNL     1      52.979  -7.893 -18.487  1.00  0.00     0.110 C 
BRANCH   5   6
HETATM    6  C   UNL     1      53.786  -7.747 -17.189  1.00  0.00     0.010 C 
BRANCH   6   7
HETATM    7  C   UNL     1      52.856  -7.596 -15.978  1.00  0.00     0.001 C 
BRANCH   7   8
HETATM    8  C   UNL     1      53.661  -7.533 -14.676  1.00  0.00     0.000 C 
BRANCH   8   9
HETATM    9  C   UNL     1      53.151  -8.564 -13.662  1.00  0.00     0.000 C 
BRANCH   9  10
HETATM   10  C   UNL     1      53.560  -8.173 -12.238  1.00  0.00     0.004 C 
BRANCH  10  11
HETATM   11  C   UNL     1      52.772  -6.956 -11.745  1.00  0.00     0.027 C 
BRANCH  11  12
HETATM   12  C   UNL     1      52.034  -7.316 -10.478  1.00  0.00    -0.031 C 
HETATM   13  C   UNL     1      50.833  -6.847 -10.083  1.00  0.00    -0.031 C 
BRANCH  13  14
HETATM   14  C   UNL     1      49.958  -5.849 -10.813  1.00  0.00     0.027 C 
BRANCH  14  15
HETATM   15  C   UNL     1      48.468  -6.102 -10.525  1.00  0.00     0.004 C 
BRANCH  15  16
HETATM   16  C   UNL     1      47.509  -5.539 -11.594  1.00  0.00     0.000 C 
BRANCH  16  17
HETATM   17  C   UNL     1      46.586  -6.607 -12.203  1.00  0.00     0.000 C 
BRANCH  17  18
HETATM   18  C   UNL     1      47.097  -7.061 -13.577  1.00  0.00     0.000 C 
BRANCH  18  19
HETATM   19  C   UNL     1      48.282  -8.024 -13.431  1.00  0.00    -0.000 C 
BRANCH  19  20
HETATM   20  C   UNL     1      49.424  -7.641 -14.381  1.00  0.00    -0.005 C 
HETATM   21  C   UNL     1      49.669  -6.136 -14.369  1.00  0.00     0.005 C 
ENDBRANCH  19  20
ENDBRANCH  18  19
ENDBRANCH  17  18
ENDBRANCH  16  17
ENDBRANCH  15  16
ENDBRANCH  14  15
ENDBRANCH  13  14
ENDBRANCH  11  12
ENDBRANCH  10  11
ENDBRANCH   9  10
ENDBRANCH   8   9
ENDBRANCH   7   8
ENDBRANCH   6   7
ENDBRANCH   5   6
ENDBRANCH   3   5
ENDBRANCH   1   3
TORSDOF 16
ENDMDL
MODEL 5
REMARK VINA RESULT:      -4.4      3.486      7.428
REMARK  16 active torsions:
REMARK  status: ('A' for Active; 'I' for Inactive)
REMARK    1  A    between atoms: O_1  and  C_20 
REMARK    2  A    between atoms: C_3  and  C_4 
REMARK    3  A    between atoms: C_3  and  C_5 
REMARK    4  A    between atoms: C_4  and  C_8 
REMARK    5  A    between atoms: C_5  and  C_11 
REMARK    6  A    between atoms: C_6  and  C_7 
REMARK    7  A    between atoms: C_6  and  C_9 
REMARK    8  A    between atoms: C_7  and  C_10 
REMARK    9  A    between atoms: C_8  and  C_12 
REMARK   10  A    between atoms: C_9  and  C_13 
REMARK   11  A    between atoms: C_10  and  C_14 
REMARK   12  A    between atoms: C_11  and  C_15 
REMARK   13  A    between atoms: C_12  and  C_16 
REMARK   14  A    between atoms: C_13  and  C_17 
REMARK   15  A    between atoms: C_14  and  C_18 
REMARK   16  A    between atoms: C_18  and  C_20 
ROOT
HETATM    1  O   UNL     1      49.910  -8.432 -18.564  1.00  0.00    -0.776 OA
HETATM    2  H   UNL     1      50.016  -9.048 -19.303  1.00  0.00     0.167 HD
ENDROOT
BRANCH   1   3
HETATM    3  C   UNL     1      48.745  -7.785 -18.348  1.00  0.00     0.139 C 
HETATM    4  O   UNL     1      47.845  -8.344 -17.736  1.00  0.00    -0.650 OA
BRANCH   3   5
HETATM    5  C   UNL     1      48.582  -6.380 -18.867  1.00  0.00     0.110 C 
BRANCH   5   6
HETATM    6  C   UNL     1      49.316  -5.334 -18.017  1.00  0.00     0.010 C 
BRANCH   6   7
HETATM    7  C   UNL     1      48.452  -4.882 -16.833  1.00  0.00     0.001 C 
BRANCH   7   8
HETATM    8  C   UNL     1      49.045  -5.367 -15.506  1.00  0.00     0.000 C 
BRANCH   8   9
HETATM    9  C   UNL     1      48.097  -6.343 -14.801  1.00  0.00     0.000 C 
BRANCH   9  10
HETATM   10  C   UNL     1      48.841  -7.614 -14.379  1.00  0.00     0.004 C 
BRANCH  10  11
HETATM   11  C   UNL     1      49.080  -7.646 -12.867  1.00  0.00     0.027 C 
BRANCH  11  12
HETATM   12  C   UNL     1      50.225  -6.725 -12.520  1.00  0.00    -0.031 C 
HETATM   13  C   UNL     1      50.178  -5.651 -11.707  1.00  0.00    -0.031 C 
BRANCH  13  14
HETATM   14  C   UNL     1      48.970  -5.119 -10.966  1.00  0.00     0.027 C 
BRANCH  14  15
HETATM   15  C   UNL     1      48.876  -5.718  -9.552  1.00  0.00     0.004 C 
BRANCH  15  16
HETATM   16  C   UNL     1      48.053  -7.020  -9.465  1.00  0.00     0.000 C 
BRANCH  16  17
HETATM   17  C   UNL     1      47.179  -7.102  -8.203  1.00  0.00     0.000 C 
BRANCH  17  18
HETATM   18  C   UNL     1      48.040  -7.263  -6.943  1.00  0.00     0.000 C 
BRANCH  18  19
HETATM   19  C   UNL     1      47.983  -6.001  -6.074  1.00  0.00    -0.000 C 
BRANCH  19  20
HETATM   20  C   UNL     1      49.355  -5.689  -5.465  1.00  0.00    -0.005 C 
HETATM   21  C   UNL     1      50.482  -6.226  -6.341  1.00  0.00     0.005 C 
ENDBRANCH  19  20
ENDBRANCH  18  19
ENDBRANCH  17  18
ENDBRANCH  16  17
ENDBRANCH  15  16
ENDBRANCH  14  15
ENDBRANCH  13  14
ENDBRANCH  11  12
ENDBRANCH  10  11
ENDBRANCH   9  10
ENDBRANCH   8   9
ENDBRANCH   7   8
ENDBRANCH   6   7
ENDBRANCH   5   6
ENDBRANCH   3   5
ENDBRANCH   1   3
TORSDOF 16
ENDMDL
MODEL 6
REMARK VINA RESULT:      -4.4      2.263      3.513
REMARK  16 active torsions:
REMARK  status: ('A' for Active; 'I' for Inactive)
REMARK    1  A    between atoms: O_1  and  C_20 
REMARK    2  A    between atoms: C_3  and  C_4 
REMARK    3  A    between atoms: C_3  and  C_5 
REMARK    4  A    between atoms: C_4  and  C_8 
REMARK    5  A    between atoms: C_5  and  C_11 
REMARK    6  A    between atoms: C_6  and  C_7 
REMARK    7  A    between atoms: C_6  and  C_9 
REMARK    8  A    between atoms: C_7  and  C_10 
REMARK    9  A    between atoms: C_8  and  C_12 
REMARK   10  A    between atoms: C_9  and  C_13 
REMARK   11  A    between atoms: C_10  and  C_14 
REMARK   12  A    between atoms: C_11  and  C_15 
REMARK   13  A    between atoms: C_12  and  C_16 
REMARK   14  A    between atoms: C_13  and  C_17 
REMARK   15  A    between atoms: C_14  and  C_18 
REMARK   16  A    between atoms: C_18  and  C_20 
ROOT
HETATM    1  O   UNL     1      52.304  -7.396 -15.725  1.00  0.00    -0.776 OA
HETATM    2  H   UNL     1      51.689  -7.220 -14.998  1.00  0.00     0.167 HD
ENDROOT
BRANCH   1   3
HETATM    3  C   UNL     1      53.626  -7.560 -15.506  1.00  0.00     0.139 C 
HETATM    4  O   UNL     1      54.432  -6.866 -16.112  1.00  0.00    -0.650 OA
BRANCH   3   5
HETATM    5  C   UNL     1      54.080  -8.599 -14.515  1.00  0.00     0.110 C 
BRANCH   5   6
HETATM    6  C   UNL     1      53.239  -8.616 -13.231  1.00  0.00     0.010 C 
BRANCH   6   7
HETATM    7  C   UNL     1      53.571  -7.413 -12.340  1.00  0.00     0.001 C 
BRANCH   7   8
HETATM    8  C   UNL     1      53.100  -7.651 -10.901  1.00  0.00     0.000 C 
BRANCH   8   9
HETATM    9  C   UNL     1      51.718  -7.031 -10.663  1.00  0.00     0.000 C 
BRANCH   9  10
HETATM   10  C   UNL     1      51.163  -6.427 -11.958  1.00  0.00     0.004 C 
BRANCH  10  11
HETATM   11  C   UNL     1      49.710  -5.978 -11.787  1.00  0.00     0.027 C 
BRANCH  11  12
HETATM   12  C   UNL     1      48.804  -7.185 -11.822  1.00  0.00    -0.031 C 
HETATM   13  C   UNL     1      48.457  -7.901 -12.910  1.00  0.00    -0.031 C 
BRANCH  13  14
HETATM   14  C   UNL     1      48.888  -7.654 -14.340  1.00  0.00     0.027 C 
BRANCH  14  15
HETATM   15  C   UNL     1      48.015  -6.576 -15.006  1.00  0.00     0.004 C 
BRANCH  15  16
HETATM   16  C   UNL     1      48.742  -5.242 -15.270  1.00  0.00     0.000 C 
BRANCH  16  17
HETATM   17  C   UNL     1      49.766  -5.325 -16.414  1.00  0.00     0.000 C 
BRANCH  17  18
HETATM   18  C   UNL     1      49.073  -5.258 -17.782  1.00  0.00     0.000 C 
BRANCH  18  19
HETATM   19  C   UNL     1      49.648  -6.307 -18.741  1.00  0.00    -0.000 C 
BRANCH  19  20
HETATM   20  C   UNL     1      49.104  -7.704 -18.422  1.00  0.00    -0.005 C 
HETATM   21  C   UNL     1      47.583  -7.741 -18.533  1.00  0.00     0.005 C 
ENDBRANCH  19  20
ENDBRANCH  18  19
ENDBRANCH  17  18
ENDBRANCH  16  17
ENDBRANCH  15  16
ENDBRANCH  14  15
ENDBRANCH  13  14
ENDBRANCH  11  12
ENDBRANCH  10  11
ENDBRANCH   9  10
ENDBRANCH   8   9
ENDBRANCH   7   8
ENDBRANCH   6   7
ENDBRANCH   5   6
ENDBRANCH   3   5
ENDBRANCH   1   3
TORSDOF 16
ENDMDL
MODEL 7
REMARK VINA RESULT:      -4.4      3.916      7.363
REMARK  16 active torsions:
REMARK  status: ('A' for Active; 'I' for Inactive)
REMARK    1  A    between atoms: O_1  and  C_20 
REMARK    2  A    between atoms: C_3  and  C_4 
REMARK    3  A    between atoms: C_3  and  C_5 
REMARK    4  A    between atoms: C_4  and  C_8 
REMARK    5  A    between atoms: C_5  and  C_11 
REMARK    6  A    between atoms: C_6  and  C_7 
REMARK    7  A    between atoms: C_6  and  C_9 
REMARK    8  A    between atoms: C_7  and  C_10 
REMARK    9  A    between atoms: C_8  and  C_12 
REMARK   10  A    between atoms: C_9  and  C_13 
REMARK   11  A    between atoms: C_10  and  C_14 
REMARK   12  A    between atoms: C_11  and  C_15 
REMARK   13  A    between atoms: C_12  and  C_16 
REMARK   14  A    between atoms: C_13  and  C_17 
REMARK   15  A    between atoms: C_14  and  C_18 
REMARK   16  A    between atoms: C_18  and  C_20 
ROOT
HETATM    1  O   UNL     1      51.468  -7.278 -10.897  1.00  0.00    -0.776 OA
HETATM    2  H   UNL     1      51.239  -6.810 -11.713  1.00  0.00     0.167 HD
ENDROOT
BRANCH   1   3
HETATM    3  C   UNL     1      50.660  -7.247  -9.817  1.00  0.00     0.139 C 
HETATM    4  O   UNL     1      50.843  -8.036  -8.899  1.00  0.00    -0.650 OA
BRANCH   3   5
HETATM    5  C   UNL     1      49.546  -6.235  -9.765  1.00  0.00     0.110 C 
BRANCH   5   6
HETATM    6  C   UNL     1      49.466  -5.361 -11.025  1.00  0.00     0.010 C 
BRANCH   6   7
HETATM    7  C   UNL     1      48.062  -5.410 -11.639  1.00  0.00     0.001 C 
BRANCH   7   8
HETATM    8  C   UNL     1      47.618  -6.858 -11.876  1.00  0.00     0.000 C 
BRANCH   8   9
HETATM    9  C   UNL     1      46.526  -6.932 -12.949  1.00  0.00     0.000 C 
BRANCH   9  10
HETATM   10  C   UNL     1      47.144  -7.069 -14.344  1.00  0.00     0.004 C 
BRANCH  10  11
HETATM   11  C   UNL     1      46.283  -6.382 -15.407  1.00  0.00     0.027 C 
BRANCH  11  12
HETATM   12  C   UNL     1      46.875  -6.635 -16.773  1.00  0.00    -0.031 C 
HETATM   13  C   UNL     1      47.877  -5.947 -17.357  1.00  0.00    -0.031 C 
BRANCH  13  14
HETATM   14  C   UNL     1      48.630  -4.766 -16.782  1.00  0.00     0.027 C 
BRANCH  14  15
HETATM   15  C   UNL     1      50.148  -5.015 -16.791  1.00  0.00     0.004 C 
BRANCH  15  16
HETATM   16  C   UNL     1      50.575  -6.361 -16.170  1.00  0.00     0.000 C 
BRANCH  16  17
HETATM   17  C   UNL     1      51.656  -7.089 -16.985  1.00  0.00     0.000 C 
BRANCH  17  18
HETATM   18  C   UNL     1      53.043  -6.907 -16.354  1.00  0.00     0.000 C 
BRANCH  18  19
HETATM   19  C   UNL     1      53.574  -8.234 -15.801  1.00  0.00    -0.000 C 
BRANCH  19  20
HETATM   20  C   UNL     1      53.877  -8.126 -14.302  1.00  0.00    -0.005 C 
HETATM   21  C   UNL     1      53.383  -9.358 -13.550  1.00  0.00     0.005 C 
ENDBRANCH  19  20
ENDBRANCH  18  19
ENDBRANCH  17  18
ENDBRANCH  16  17
ENDBRANCH  15  16
ENDBRANCH  14  15
ENDBRANCH  13  14
ENDBRANCH  11  12
ENDBRANCH  10  11
ENDBRANCH   9  10
ENDBRANCH   8   9
ENDBRANCH   7   8
ENDBRANCH   6   7
ENDBRANCH   5   6
ENDBRANCH   3   5
ENDBRANCH   1   3
TORSDOF 16
ENDMDL
MODEL 8
REMARK VINA RESULT:      -4.4      2.229      6.353
REMARK  16 active torsions:
REMARK  status: ('A' for Active; 'I' for Inactive)
REMARK    1  A    between atoms: O_1  and  C_20 
REMARK    2  A    between atoms: C_3  and  C_4 
REMARK    3  A    between atoms: C_3  and  C_5 
REMARK    4  A    between atoms: C_4  and  C_8 
REMARK    5  A    between atoms: C_5  and  C_11 
REMARK    6  A    between atoms: C_6  and  C_7 
REMARK    7  A    between atoms: C_6  and  C_9 
REMARK    8  A    between atoms: C_7  and  C_10 
REMARK    9  A    between atoms: C_8  and  C_12 
REMARK   10  A    between atoms: C_9  and  C_13 
REMARK   11  A    between atoms: C_10  and  C_14 
REMARK   12  A    between atoms: C_11  and  C_15 
REMARK   13  A    between atoms: C_12  and  C_16 
REMARK   14  A    between atoms: C_13  and  C_17 
REMARK   15  A    between atoms: C_14  and  C_18 
REMARK   16  A    between atoms: C_18  and  C_20 
ROOT
HETATM    1  O   UNL     1      52.451  -9.382 -18.757  1.00  0.00    -0.776 OA
HETATM    2  H   UNL     1      51.485  -9.315 -18.745  1.00  0.00     0.167 HD
ENDROOT
BRANCH   1   3
HETATM    3  C   UNL     1      53.226  -8.339 -19.121  1.00  0.00     0.139 C 
HETATM    4  O   UNL     1      54.221  -8.063 -18.463  1.00  0.00    -0.650 OA
BRANCH   3   5
HETATM    5  C   UNL     1      52.847  -7.535 -20.336  1.00  0.00     0.110 C 
BRANCH   5   6
HETATM    6  C   UNL     1      51.552  -6.733 -20.148  1.00  0.00     0.010 C 
BRANCH   6   7
HETATM    7  C   UNL     1      50.812  -6.562 -21.482  1.00  0.00     0.001 C 
BRANCH   7   8
HETATM    8  C   UNL     1      49.540  -5.727 -21.299  1.00  0.00     0.000 C 
BRANCH   8   9
HETATM    9  C   UNL     1      48.313  -6.464 -21.848  1.00  0.00     0.000 C 
BRANCH   9  10
HETATM   10  C   UNL     1      47.272  -6.683 -20.745  1.00  0.00     0.004 C 
BRANCH  10  11
HETATM   11  C   UNL     1      47.848  -7.504 -19.589  1.00  0.00     0.027 C 
BRANCH  11  12
HETATM   12  C   UNL     1      47.265  -7.013 -18.285  1.00  0.00    -0.031 C 
HETATM   13  C   UNL     1      47.837  -6.150 -17.421  1.00  0.00    -0.031 C 
BRANCH  13  14
HETATM   14  C   UNL     1      49.192  -5.488 -17.554  1.00  0.00     0.027 C 
BRANCH  14  15
HETATM   15  C   UNL     1      50.130  -5.903 -16.407  1.00  0.00     0.004 C 
BRANCH  15  16
HETATM   16  C   UNL     1      49.468  -5.907 -15.014  1.00  0.00     0.000 C 
BRANCH  16  17
HETATM   17  C   UNL     1      49.471  -7.292 -14.346  1.00  0.00     0.000 C 
BRANCH  17  18
HETATM   18  C   UNL     1      49.219  -7.178 -12.836  1.00  0.00     0.000 C 
BRANCH  18  19
HETATM   19  C   UNL     1      50.175  -6.166 -12.194  1.00  0.00    -0.000 C 
BRANCH  19  20
HETATM   20  C   UNL     1      49.407  -5.131 -11.363  1.00  0.00    -0.005 C 
HETATM   21  C   UNL     1      49.075  -5.674  -9.977  1.00  0.00     0.005 C 
ENDBRANCH  19  20
ENDBRANCH  18  19
ENDBRANCH  17  18
ENDBRANCH  16  17
ENDBRANCH  15  16
ENDBRANCH  14  15
ENDBRANCH  13  14
ENDBRANCH  11  12
ENDBRANCH  10  11
ENDBRANCH   9  10
ENDBRANCH   8   9
ENDBRANCH   7   8
ENDBRANCH   6   7
ENDBRANCH   5   6
ENDBRANCH   3   5
ENDBRANCH   1   3
TORSDOF 16
ENDMDL
MODEL 9
REMARK VINA RESULT:      -4.4      2.757      4.745
REMARK  16 active torsions:
REMARK  status: ('A' for Active; 'I' for Inactive)
REMARK    1  A    between atoms: O_1  and  C_20 
REMARK    2  A    between atoms: C_3  and  C_4 
REMARK    3  A    between atoms: C_3  and  C_5 
REMARK    4  A    between atoms: C_4  and  C_8 
REMARK    5  A    between atoms: C_5  and  C_11 
REMARK    6  A    between atoms: C_6  and  C_7 
REMARK    7  A    between atoms: C_6  and  C_9 
REMARK    8  A    between atoms: C_7  and  C_10 
REMARK    9  A    between atoms: C_8  and  C_12 
REMARK   10  A    between atoms: C_9  and  C_13 
REMARK   11  A    between atoms: C_10  and  C_14 
REMARK   12  A    between atoms: C_11  and  C_15 
REMARK   13  A    between atoms: C_12  and  C_16 
REMARK   14  A    between atoms: C_13  and  C_17 
REMARK   15  A    between atoms: C_14  and  C_18 
REMARK   16  A    between atoms: C_18  and  C_20 
ROOT
HETATM    1  O   UNL     1      52.819  -9.889 -13.604  1.00  0.00    -0.776 OA
HETATM    2  H   UNL     1      53.102 -10.352 -12.803  1.00  0.00     0.167 HD
ENDROOT
BRANCH   1   3
HETATM    3  C   UNL     1      52.793  -8.541 -13.669  1.00  0.00     0.139 C 
HETATM    4  O   UNL     1      52.197  -7.989 -14.584  1.00  0.00    -0.650 OA
BRANCH   3   5
HETATM    5  C   UNL     1      53.503  -7.745 -12.606  1.00  0.00     0.110 C 
BRANCH   5   6
HETATM    6  C   UNL     1      52.611  -7.420 -11.400  1.00  0.00     0.010 C 
BRANCH   6   7
HETATM    7  C   UNL     1      51.559  -6.365 -11.762  1.00  0.00     0.001 C 
BRANCH   7   8
HETATM    8  C   UNL     1      50.343  -6.464 -10.834  1.00  0.00     0.000 C 
BRANCH   8   9
HETATM    9  C   UNL     1      49.186  -7.202 -11.516  1.00  0.00     0.000 C 
BRANCH   9  10
HETATM   10  C   UNL     1      47.836  -6.667 -11.026  1.00  0.00     0.004 C 
BRANCH  10  11
HETATM   11  C   UNL     1      46.895  -6.371 -12.197  1.00  0.00     0.027 C 
BRANCH  11  12
HETATM   12  C   UNL     1      46.987  -7.486 -13.210  1.00  0.00    -0.031 C 
HETATM   13  C   UNL     1      47.391  -7.380 -14.492  1.00  0.00    -0.031 C 
BRANCH  13  14
HETATM   14  C   UNL     1      47.834  -6.121 -15.207  1.00  0.00     0.027 C 
BRANCH  14  15
HETATM   15  C   UNL     1      49.333  -5.852 -14.984  1.00  0.00     0.004 C 
BRANCH  15  16
HETATM   16  C   UNL     1      50.159  -5.739 -16.282  1.00  0.00     0.000 C 
BRANCH  16  17
HETATM   17  C   UNL     1      49.314  -5.357 -17.508  1.00  0.00     0.000 C 
BRANCH  17  18
HETATM   18  C   UNL     1      49.756  -6.142 -18.750  1.00  0.00     0.000 C 
BRANCH  18  19
HETATM   19  C   UNL     1      48.980  -5.686 -19.992  1.00  0.00    -0.000 C 
BRANCH  19  20
HETATM   20  C   UNL     1      49.477  -6.410 -21.249  1.00  0.00    -0.005 C 
HETATM   21  C   UNL     1      50.996  -6.333 -21.364  1.00  0.00     0.005 C 
ENDBRANCH  19  20
ENDBRANCH  18  19
ENDBRANCH  17  18
ENDBRANCH  16  17
ENDBRANCH  15  16
ENDBRANCH  14  15
ENDBRANCH  13  14
ENDBRANCH  11  12
ENDBRANCH  10  11
ENDBRANCH   9  10
ENDBRANCH   8   9
ENDBRANCH   7   8
ENDBRANCH   6   7
ENDBRANCH   5   6
ENDBRANCH   3   5
ENDBRANCH   1   3
TORSDOF 16
ENDMDL
MODEL 10
REMARK VINA RESULT:      -4.3      1.726      4.165
REMARK  16 active torsions:
REMARK  status: ('A' for Active; 'I' for Inactive)
REMARK    1  A    between atoms: O_1  and  C_20 
REMARK    2  A    between atoms: C_3  and  C_4 
REMARK    3  A    between atoms: C_3  and  C_5 
REMARK    4  A    between atoms: C_4  and  C_8 
REMARK    5  A    between atoms: C_5  and  C_11 
REMARK    6  A    between atoms: C_6  and  C_7 
REMARK    7  A    between atoms: C_6  and  C_9 
REMARK    8  A    between atoms: C_7  and  C_10 
REMARK    9  A    between atoms: C_8  and  C_12 
REMARK   10  A    between atoms: C_9  and  C_13 
REMARK   11  A    between atoms: C_10  and  C_14 
REMARK   12  A    between atoms: C_11  and  C_15 
REMARK   13  A    between atoms: C_12  and  C_16 
REMARK   14  A    between atoms: C_13  and  C_17 
REMARK   15  A    between atoms: C_14  and  C_18 
REMARK   16  A    between atoms: C_18  and  C_20 
ROOT
HETATM    1  O   UNL     1      54.620  -7.510 -18.710  1.00  0.00    -0.776 OA
HETATM    2  H   UNL     1      55.163  -6.721 -18.569  1.00  0.00     0.167 HD
ENDROOT
BRANCH   1   3
HETATM    3  C   UNL     1      53.697  -7.902 -17.807  1.00  0.00     0.139 C 
HETATM    4  O   UNL     1      52.732  -8.560 -18.171  1.00  0.00    -0.650 OA
BRANCH   3   5
HETATM    5  C   UNL     1      53.880  -7.518 -16.362  1.00  0.00     0.110 C 
BRANCH   5   6
HETATM    6  C   UNL     1      52.556  -7.416 -15.593  1.00  0.00     0.010 C 
BRANCH   6   7
HETATM    7  C   UNL     1      52.682  -8.037 -14.196  1.00  0.00     0.001 C 
BRANCH   7   8
HETATM    8  C   UNL     1      51.622  -7.467 -13.247  1.00  0.00     0.000 C 
BRANCH   8   9
HETATM    9  C   UNL     1      50.228  -7.519 -13.882  1.00  0.00     0.000 C 
BRANCH   9  10
HETATM   10  C   UNL     1      49.613  -6.117 -13.957  1.00  0.00     0.004 C 
BRANCH  10  11
HETATM   11  C   UNL     1      48.484  -6.056 -14.989  1.00  0.00     0.027 C 
BRANCH  11  12
HETATM   12  C   UNL     1      48.814  -5.016 -16.032  1.00  0.00    -0.031 C 
HETATM   13  C   UNL     1      49.456  -5.221 -17.200  1.00  0.00    -0.031 C 
BRANCH  13  14
HETATM   14  C   UNL     1      49.998  -6.533 -17.726  1.00  0.00     0.027 C 
BRANCH  14  15
HETATM   15  C   UNL     1      48.938  -7.281 -18.553  1.00  0.00     0.004 C 
BRANCH  15  16
HETATM   16  C   UNL     1      49.024  -7.032 -20.073  1.00  0.00     0.000 C 
BRANCH  16  17
HETATM   17  C   UNL     1      50.365  -6.422 -20.512  1.00  0.00     0.000 C 
BRANCH  17  18
HETATM   18  C   UNL     1      50.176  -5.467 -21.698  1.00  0.00     0.000 C 
BRANCH  18  19
HETATM   19  C   UNL     1      48.924  -5.832 -22.504  1.00  0.00    -0.000 C 
BRANCH  19  20
HETATM   20  C   UNL     1      49.244  -5.943 -24.000  1.00  0.00    -0.005 C 
HETATM   21  C   UNL     1      48.000  -6.311 -24.802  1.00  0.00     0.005 C 
ENDBRANCH  19  20
ENDBRANCH  18  19
ENDBRANCH  17  18
ENDBRANCH  16  17
ENDBRANCH  15  16
ENDBRANCH  14  15
ENDBRANCH  13  14
ENDBRANCH  11  12
ENDBRANCH  10  11
ENDBRANCH   9  10
ENDBRANCH   8   9
ENDBRANCH   7   8
ENDBRANCH   6   7
ENDBRANCH   5   6
ENDBRANCH   3   5
ENDBRANCH   1   3
TORSDOF 16
ENDMDL
MODEL 11
REMARK VINA RESULT:      -4.3     23.870     26.288
REMARK  16 active torsions:
REMARK  status: ('A' for Active; 'I' for Inactive)
REMARK    1  A    between atoms: O_1  and  C_20 
REMARK    2  A    between atoms: C_3  and  C_4 
REMARK    3  A    between atoms: C_3  and  C_5 
REMARK    4  A    between atoms: C_4  and  C_8 
REMARK    5  A    between atoms: C_5  and  C_11 
REMARK    6  A    between atoms: C_6  and  C_7 
REMARK    7  A    between atoms: C_6  and  C_9 
REMARK    8  A    between atoms: C_7  and  C_10 
REMARK    9  A    between atoms: C_8  and  C_12 
REMARK   10  A    between atoms: C_9  and  C_13 
REMARK   11  A    between atoms: C_10  and  C_14 
REMARK   12  A    between atoms: C_11  and  C_15 
REMARK   13  A    between atoms: C_12  and  C_16 
REMARK   14  A    between atoms: C_13  and  C_17 
REMARK   15  A    between atoms: C_14  and  C_18 
REMARK   16  A    between atoms: C_18  and  C_20 
ROOT
HETATM    1  O   UNL     1      26.459 -16.797  -4.995  1.00  0.00    -0.776 OA
HETATM    2  H   UNL     1      25.971 -16.399  -4.259  1.00  0.00     0.167 HD
ENDROOT
BRANCH   1   3
HETATM    3  C   UNL     1      26.980 -16.043  -5.985  1.00  0.00     0.139 C 
HETATM    4  O   UNL     1      27.307 -14.885  -5.758  1.00  0.00    -0.650 OA
BRANCH   3   5
HETATM    5  C   UNL     1      27.148 -16.647  -7.354  1.00  0.00     0.110 C 
BRANCH   5   6
HETATM    6  C   UNL     1      27.263 -15.597  -8.467  1.00  0.00     0.010 C 
BRANCH   6   7
HETATM    7  C   UNL     1      28.648 -15.641  -9.124  1.00  0.00     0.001 C 
BRANCH   7   8
HETATM    8  C   UNL     1      28.539 -16.017 -10.605  1.00  0.00     0.000 C 
BRANCH   8   9
HETATM    9  C   UNL     1      27.192 -15.574 -11.189  1.00  0.00     0.000 C 
BRANCH   9  10
HETATM   10  C   UNL     1      26.343 -16.788 -11.578  1.00  0.00     0.004 C 
BRANCH  10  11
HETATM   11  C   UNL     1      26.830 -17.414 -12.887  1.00  0.00     0.027 C 
BRANCH  11  12
HETATM   12  C   UNL     1      26.551 -16.468 -14.031  1.00  0.00    -0.031 C 
HETATM   13  C   UNL     1      27.464 -15.827 -14.788  1.00  0.00    -0.031 C 
BRANCH  13  14
HETATM   14  C   UNL     1      28.971 -15.902 -14.659  1.00  0.00     0.027 C 
BRANCH  14  15
HETATM   15  C   UNL     1      29.530 -14.666 -13.933  1.00  0.00     0.004 C 
BRANCH  15  16
HETATM   16  C   UNL     1      28.560 -13.467 -13.879  1.00  0.00     0.000 C 
BRANCH  16  17
HETATM   17  C   UNL     1      29.180 -12.162 -14.404  1.00  0.00     0.000 C 
BRANCH  17  18
HETATM   18  C   UNL     1      30.429 -11.780 -13.600  1.00  0.00     0.000 C 
BRANCH  18  19
HETATM   19  C   UNL     1      30.051 -11.285 -12.199  1.00  0.00    -0.000 C 
BRANCH  19  20
HETATM   20  C   UNL     1      30.821 -12.051 -11.116  1.00  0.00    -0.005 C 
HETATM   21  C   UNL     1      29.980 -12.214  -9.854  1.00  0.00     0.005 C 
ENDBRANCH  19  20
ENDBRANCH  18  19
ENDBRANCH  17  18
ENDBRANCH  16  17
ENDBRANCH  15  16
ENDBRANCH  14  15
ENDBRANCH  13  14
ENDBRANCH  11  12
ENDBRANCH  10  11
ENDBRANCH   9  10
ENDBRANCH   8   9
ENDBRANCH   7   8
ENDBRANCH   6   7
ENDBRANCH   5   6
ENDBRANCH   3   5
ENDBRANCH   1   3
TORSDOF 16
ENDMDL
MODEL 12
REMARK VINA RESULT:      -4.3     18.780     20.656
REMARK  16 active torsions:
REMARK  status: ('A' for Active; 'I' for Inactive)
REMARK    1  A    between atoms: O_1  and  C_20 
REMARK    2  A    between atoms: C_3  and  C_4 
REMARK    3  A    between atoms: C_3  and  C_5 
REMARK    4  A    between atoms: C_4  and  C_8 
REMARK    5  A    between atoms: C_5  and  C_11 
REMARK    6  A    between atoms: C_6  and  C_7 
REMARK    7  A    between atoms: C_6  and  C_9 
REMARK    8  A    between atoms: C_7  and  C_10 
REMARK    9  A    between atoms: C_8  and  C_12 
REMARK   10  A    between atoms: C_9  and  C_13 
REMARK   11  A    between atoms: C_10  and  C_14 
REMARK   12  A    between atoms: C_11  and  C_15 
REMARK   13  A    between atoms: C_12  and  C_16 
REMARK   14  A    between atoms: C_13  and  C_17 
REMARK   15  A    between atoms: C_14  and  C_18 
REMARK   16  A    between atoms: C_18  and  C_20 
ROOT
HETATM    1  O   UNL     1      36.430  -7.945 -18.411  1.00  0.00    -0.776 OA
HETATM    2  H   UNL     1      36.681  -7.461 -19.211  1.00  0.00     0.167 HD
ENDROOT
BRANCH   1   3
HETATM    3  C   UNL     1      35.463  -7.490 -17.587  1.00  0.00     0.139 C 
HETATM    4  O   UNL     1      35.350  -6.288 -17.389  1.00  0.00    -0.650 OA
BRANCH   3   5
HETATM    5  C   UNL     1      34.539  -8.480 -16.927  1.00  0.00     0.110 C 
BRANCH   5   6
HETATM    6  C   UNL     1      34.345  -9.763 -17.747  1.00  0.00     0.010 C 
BRANCH   6   7
HETATM    7  C   UNL     1      32.930 -10.324 -17.562  1.00  0.00     0.001 C 
BRANCH   7   8
HETATM    8  C   UNL     1      32.706 -10.776 -16.115  1.00  0.00     0.000 C 
BRANCH   8   9
HETATM    9  C   UNL     1      33.550 -12.012 -15.786  1.00  0.00     0.000 C 
BRANCH   9  10
HETATM   10  C   UNL     1      34.421 -11.762 -14.550  1.00  0.00     0.004 C 
BRANCH  10  11
HETATM   11  C   UNL     1      34.045 -10.450 -13.858  1.00  0.00     0.027 C 
BRANCH  11  12
HETATM   12  C   UNL     1      33.777 -10.713 -12.395  1.00  0.00    -0.031 C 
HETATM   13  C   UNL     1      32.572 -10.868 -11.811  1.00  0.00    -0.031 C 
BRANCH  13  14
HETATM   14  C   UNL     1      31.217 -10.806 -12.484  1.00  0.00     0.027 C 
BRANCH  14  15
HETATM   15  C   UNL     1      30.838 -12.164 -13.100  1.00  0.00     0.004 C 
BRANCH  15  16
HETATM   16  C   UNL     1      29.779 -12.083 -14.218  1.00  0.00     0.000 C 
BRANCH  16  17
HETATM   17  C   UNL     1      29.790 -13.303 -15.153  1.00  0.00     0.000 C 
BRANCH  17  18
HETATM   18  C   UNL     1      28.407 -13.965 -15.215  1.00  0.00     0.000 C 
BRANCH  18  19
HETATM   19  C   UNL     1      28.128 -14.776 -13.944  1.00  0.00    -0.000 C 
BRANCH  19  20
HETATM   20  C   UNL     1      27.591 -16.171 -14.286  1.00  0.00    -0.005 C 
HETATM   21  C   UNL     1      26.315 -16.475 -13.509  1.00  0.00     0.005 C 
ENDBRANCH  19  20
ENDBRANCH  18  19
ENDBRANCH  17  18
ENDBRANCH  16  17
ENDBRANCH  15  16
ENDBRANCH  14  15
ENDBRANCH  13  14
ENDBRANCH  11  12
ENDBRANCH  10  11
ENDBRANCH   9  10
ENDBRANCH   8   9
ENDBRANCH   7   8
ENDBRANCH   6   7
ENDBRANCH   5   6
ENDBRANCH   3   5
ENDBRANCH   1   3
TORSDOF 16
ENDMDL
MODEL 13
REMARK VINA RESULT:      -4.3     10.871     12.647
REMARK  16 active torsions:
REMARK  status: ('A' for Active; 'I' for Inactive)
REMARK    1  A    between atoms: O_1  and  C_20 
REMARK    2  A    between atoms: C_3  and  C_4 
REMARK    3  A    between atoms: C_3  and  C_5 
REMARK    4  A    between atoms: C_4  and  C_8 
REMARK    5  A    between atoms: C_5  and  C_11 
REMARK    6  A    between atoms: C_6  and  C_7 
REMARK    7  A    between atoms: C_6  and  C_9 
REMARK    8  A    between atoms: C_7  and  C_10 
REMARK    9  A    between atoms: C_8  and  C_12 
REMARK   10  A    between atoms: C_9  and  C_13 
REMARK   11  A    between atoms: C_10  and  C_14 
REMARK   12  A    between atoms: C_11  and  C_15 
REMARK   13  A    between atoms: C_12  and  C_16 
REMARK   14  A    between atoms: C_13  and  C_17 
REMARK   15  A    between atoms: C_14  and  C_18 
REMARK   16  A    between atoms: C_18  and  C_20 
ROOT
HETATM    1  O   UNL     1      55.488  -0.157  -7.125  1.00  0.00    -0.776 OA
HETATM    2  H   UNL     1      54.590   0.111  -6.885  1.00  0.00     0.167 HD
ENDROOT
BRANCH   1   3
HETATM    3  C   UNL     1      56.569   0.506  -6.663  1.00  0.00     0.139 C 
HETATM    4  O   UNL     1      56.584   0.913  -5.509  1.00  0.00    -0.650 OA
BRANCH   3   5
HETATM    5  C   UNL     1      57.739   0.730  -7.585  1.00  0.00     0.110 C 
BRANCH   5   6
HETATM    6  C   UNL     1      57.380   1.562  -8.824  1.00  0.00     0.010 C 
BRANCH   6   7
HETATM    7  C   UNL     1      57.370   0.692 -10.087  1.00  0.00     0.001 C 
BRANCH   7   8
HETATM    8  C   UNL     1      57.818   1.499 -11.310  1.00  0.00     0.000 C 
BRANCH   8   9
HETATM    9  C   UNL     1      58.029   0.587 -12.525  1.00  0.00     0.000 C 
BRANCH   9  10
HETATM   10  C   UNL     1      57.850   1.371 -13.829  1.00  0.00     0.004 C 
BRANCH  10  11
HETATM   11  C   UNL     1      57.956   0.455 -15.051  1.00  0.00     0.027 C 
BRANCH  11  12
HETATM   12  C   UNL     1      56.620   0.397 -15.752  1.00  0.00    -0.031 C 
HETATM   13  C   UNL     1      56.382   0.647 -17.055  1.00  0.00    -0.031 C 
BRANCH  13  14
HETATM   14  C   UNL     1      57.394   1.051 -18.107  1.00  0.00     0.027 C 
BRANCH  14  15
HETATM   15  C   UNL     1      57.716   2.553 -18.022  1.00  0.00     0.004 C 
BRANCH  15  16
HETATM   16  C   UNL     1      59.089   2.944 -18.606  1.00  0.00     0.000 C 
BRANCH  16  17
HETATM   17  C   UNL     1      58.985   3.783 -19.890  1.00  0.00     0.000 C 
BRANCH  17  18
HETATM   18  C   UNL     1      59.011   2.890 -21.138  1.00  0.00     0.000 C 
BRANCH  18  19
HETATM   19  C   UNL     1      57.593   2.648 -21.670  1.00  0.00    -0.000 C 
BRANCH  19  20
HETATM   20  C   UNL     1      57.406   1.188 -22.100  1.00  0.00    -0.005 C 
HETATM   21  C   UNL     1      56.051   0.651 -21.649  1.00  0.00     0.005 C 
ENDBRANCH  19  20
ENDBRANCH  18  19
ENDBRANCH  17  18
ENDBRANCH  16  17
ENDBRANCH  15  16
ENDBRANCH  14  15
ENDBRANCH  13  14
ENDBRANCH  11  12
ENDBRANCH  10  11
ENDBRANCH   9  10
ENDBRANCH   8   9
ENDBRANCH   7   8
ENDBRANCH   6   7
ENDBRANCH   5   6
ENDBRANCH   3   5
ENDBRANCH   1   3
TORSDOF 16
ENDMDL
MODEL 14
REMARK VINA RESULT:      -4.2      3.482      5.525
REMARK  16 active torsions:
REMARK  status: ('A' for Active; 'I' for Inactive)
REMARK    1  A    between atoms: O_1  and  C_20 
REMARK    2  A    between atoms: C_3  and  C_4 
REMARK    3  A    between atoms: C_3  and  C_5 
REMARK    4  A    between atoms: C_4  and  C_8 
REMARK    5  A    between atoms: C_5  and  C_11 
REMARK    6  A    between atoms: C_6  and  C_7 
REMARK    7  A    between atoms: C_6  and  C_9 
REMARK    8  A    between atoms: C_7  and  C_10 
REMARK    9  A    between atoms: C_8  and  C_12 
REMARK   10  A    between atoms: C_9  and  C_13 
REMARK   11  A    between atoms: C_10  and  C_14 
REMARK   12  A    between atoms: C_11  and  C_15 
REMARK   13  A    between atoms: C_12  and  C_16 
REMARK   14  A    between atoms: C_13  and  C_17 
REMARK   15  A    between atoms: C_14  and  C_18 
REMARK   16  A    between atoms: C_18  and  C_20 
ROOT
HETATM    1  O   UNL     1      46.039  -6.866 -17.375  1.00  0.00    -0.776 OA
HETATM    2  H   UNL     1      45.878  -7.813 -17.259  1.00  0.00     0.167 HD
ENDROOT
BRANCH   1   3
HETATM    3  C   UNL     1      46.577  -6.116 -16.390  1.00  0.00     0.139 C 
HETATM    4  O   UNL     1      46.581  -4.897 -16.488  1.00  0.00    -0.650 OA
BRANCH   3   5
HETATM    5  C   UNL     1      47.164  -6.804 -15.185  1.00  0.00     0.110 C 
BRANCH   5   6
HETATM    6  C   UNL     1      46.270  -6.708 -13.941  1.00  0.00     0.010 C 
BRANCH   6   7
HETATM    7  C   UNL     1      47.081  -6.946 -12.661  1.00  0.00     0.001 C 
BRANCH   7   8
HETATM    8  C   UNL     1      46.385  -6.321 -11.448  1.00  0.00     0.000 C 
BRANCH   8   9
HETATM    9  C   UNL     1      47.257  -6.435 -10.192  1.00  0.00     0.000 C 
BRANCH   9  10
HETATM   10  C   UNL     1      48.356  -7.484 -10.387  1.00  0.00     0.004 C 
BRANCH  10  11
HETATM   11  C   UNL     1      49.741  -6.904 -10.090  1.00  0.00     0.027 C 
BRANCH  11  12
HETATM   12  C   UNL     1      50.030  -5.776 -11.052  1.00  0.00    -0.031 C 
HETATM   13  C   UNL     1      50.531  -5.889 -12.299  1.00  0.00    -0.031 C 
BRANCH  13  14
HETATM   14  C   UNL     1      50.924  -7.164 -13.013  1.00  0.00     0.027 C 
BRANCH  14  15
HETATM   15  C   UNL     1      50.308  -7.226 -14.422  1.00  0.00     0.004 C 
BRANCH  15  16
HETATM   16  C   UNL     1      51.211  -6.657 -15.536  1.00  0.00     0.000 C 
BRANCH  16  17
HETATM   17  C   UNL     1      50.425  -5.929 -16.639  1.00  0.00     0.000 C 
BRANCH  17  18
HETATM   18  C   UNL     1      49.843  -6.923 -17.652  1.00  0.00     0.000 C 
BRANCH  18  19
HETATM   19  C   UNL     1      50.114  -6.465 -19.090  1.00  0.00    -0.000 C 
BRANCH  19  20
HETATM   20  C   UNL     1      48.963  -5.604 -19.622  1.00  0.00    -0.005 C 
HETATM   21  C   UNL     1      49.215  -5.178 -21.065  1.00  0.00     0.005 C 
ENDBRANCH  19  20
ENDBRANCH  18  19
ENDBRANCH  17  18
ENDBRANCH  16  17
ENDBRANCH  15  16
ENDBRANCH  14  15
ENDBRANCH  13  14
ENDBRANCH  11  12
ENDBRANCH  10  11
ENDBRANCH   9  10
ENDBRANCH   8   9
ENDBRANCH   7   8
ENDBRANCH   6   7
ENDBRANCH   5   6
ENDBRANCH   3   5
ENDBRANCH   1   3
TORSDOF 16
ENDMDL
MODEL 15
REMARK VINA RESULT:      -4.2      3.947      7.733
REMARK  16 active torsions:
REMARK  status: ('A' for Active; 'I' for Inactive)
REMARK    1  A    between atoms: O_1  and  C_20 
REMARK    2  A    between atoms: C_3  and  C_4 
REMARK    3  A    between atoms: C_3  and  C_5 
REMARK    4  A    between atoms: C_4  and  C_8 
REMARK    5  A    between atoms: C_5  and  C_11 
REMARK    6  A    between atoms: C_6  and  C_7 
REMARK    7  A    between atoms: C_6  and  C_9 
REMARK    8  A    between atoms: C_7  and  C_10 
REMARK    9  A    between atoms: C_8  and  C_12 
REMARK   10  A    between atoms: C_9  and  C_13 
REMARK   11  A    between atoms: C_10  and  C_14 
REMARK   12  A    between atoms: C_11  and  C_15 
REMARK   13  A    between atoms: C_12  and  C_16 
REMARK   14  A    between atoms: C_13  and  C_17 
REMARK   15  A    between atoms: C_14  and  C_18 
REMARK   16  A    between atoms: C_18  and  C_20 
ROOT
HETATM    1  O   UNL     1      46.857  -5.000 -11.578  1.00  0.00    -0.776 OA
HETATM    2  H   UNL     1      46.353  -5.036 -12.403  1.00  0.00     0.167 HD
ENDROOT
BRANCH   1   3
HETATM    3  C   UNL     1      48.182  -4.742 -11.571  1.00  0.00     0.139 C 
HETATM    4  O   UNL     1      48.574  -3.583 -11.548  1.00  0.00    -0.650 OA
BRANCH   3   5
HETATM    5  C   UNL     1      49.151  -5.894 -11.593  1.00  0.00     0.110 C 
BRANCH   5   6
HETATM    6  C   UNL     1      49.591  -6.286 -13.011  1.00  0.00     0.010 C 
BRANCH   6   7
HETATM    7  C   UNL     1      48.682  -5.642 -14.065  1.00  0.00     0.001 C 
BRANCH   7   8
HETATM    8  C   UNL     1      47.612  -6.630 -14.543  1.00  0.00     0.000 C 
BRANCH   8   9
HETATM    9  C   UNL     1      47.932  -7.153 -15.948  1.00  0.00     0.000 C 
BRANCH   9  10
HETATM   10  C   UNL     1      47.585  -6.104 -17.010  1.00  0.00     0.004 C 
BRANCH  10  11
HETATM   11  C   UNL     1      48.837  -5.375 -17.505  1.00  0.00     0.027 C 
BRANCH  11  12
HETATM   12  C   UNL     1      49.727  -6.350 -18.239  1.00  0.00    -0.031 C 
HETATM   13  C   UNL     1      50.818  -6.971 -17.749  1.00  0.00    -0.031 C 
BRANCH  13  14
HETATM   14  C   UNL     1      51.403  -6.829 -16.360  1.00  0.00     0.027 C 
BRANCH  14  15
HETATM   15  C   UNL     1      52.913  -6.537 -16.420  1.00  0.00     0.004 C 
BRANCH  15  16
HETATM   16  C   UNL     1      53.809  -7.747 -16.087  1.00  0.00     0.000 C 
BRANCH  16  17
HETATM   17  C   UNL     1      53.333  -8.534 -14.855  1.00  0.00     0.000 C 
BRANCH  17  18
HETATM   18  C   UNL     1      54.110  -8.118 -13.599  1.00  0.00     0.000 C 
BRANCH  18  19
HETATM   19  C   UNL     1      53.154  -7.698 -12.476  1.00  0.00    -0.000 C 
BRANCH  19  20
HETATM   20  C   UNL     1      53.928  -7.173 -11.261  1.00  0.00    -0.005 C 
HETATM   21  C   UNL     1      53.814  -8.132 -10.080  1.00  0.00     0.005 C 
ENDBRANCH  19  20
ENDBRANCH  18  19
ENDBRANCH  17  18
ENDBRANCH  16  17
ENDBRANCH  15  16
ENDBRANCH  14  15
ENDBRANCH  13  14
ENDBRANCH  11  12
ENDBRANCH  10  11
ENDBRANCH   9  10
ENDBRANCH   8   9
ENDBRANCH   7   8
ENDBRANCH   6   7
ENDBRANCH   5   6
ENDBRANCH   3   5
ENDBRANCH   1   3
TORSDOF 16
ENDMDL
MODEL 16
REMARK VINA RESULT:      -4.2      4.077      6.721
REMARK  16 active torsions:
REMARK  status: ('A' for Active; 'I' for Inactive)
REMARK    1  A    between atoms: O_1  and  C_20 
REMARK    2  A    between atoms: C_3  and  C_4 
REMARK    3  A    between atoms: C_3  and  C_5 
REMARK    4  A    between atoms: C_4  and  C_8 
REMARK    5  A    between atoms: C_5  and  C_11 
REMARK    6  A    between atoms: C_6  and  C_7 
REMARK    7  A    between atoms: C_6  and  C_9 
REMARK    8  A    between atoms: C_7  and  C_10 
REMARK    9  A    between atoms: C_8  and  C_12 
REMARK   10  A    between atoms: C_9  and  C_13 
REMARK   11  A    between atoms: C_10  and  C_14 
REMARK   12  A    between atoms: C_11  and  C_15 
REMARK   13  A    between atoms: C_12  and  C_16 
REMARK   14  A    between atoms: C_13  and  C_17 
REMARK   15  A    between atoms: C_14  and  C_18 
REMARK   16  A    between atoms: C_18  and  C_20 
ROOT
HETATM    1  O   UNL     1      53.150  -9.978  -9.367  1.00  0.00    -0.776 OA
HETATM    2  H   UNL     1      53.281 -10.326 -10.260  1.00  0.00     0.167 HD
ENDROOT
BRANCH   1   3
HETATM    3  C   UNL     1      53.006  -8.656  -9.138  1.00  0.00     0.139 C 
HETATM    4  O   UNL     1      52.992  -8.236  -7.989  1.00  0.00    -0.650 OA
BRANCH   3   5
HETATM    5  C   UNL     1      52.866  -7.722 -10.312  1.00  0.00     0.110 C 
BRANCH   5   6
HETATM    6  C   UNL     1      54.210  -7.169 -10.805  1.00  0.00     0.010 C 
BRANCH   6   7
HETATM    7  C   UNL     1      54.288  -7.199 -12.337  1.00  0.00     0.001 C 
BRANCH   7   8
HETATM    8  C   UNL     1      53.506  -8.390 -12.900  1.00  0.00     0.000 C 
BRANCH   8   9
HETATM    9  C   UNL     1      53.529  -8.390 -14.433  1.00  0.00     0.000 C 
BRANCH   9  10
HETATM   10  C   UNL     1      54.183  -7.111 -14.966  1.00  0.00     0.004 C 
BRANCH  10  11
HETATM   11  C   UNL     1      54.271  -7.123 -16.495  1.00  0.00     0.027 C 
BRANCH  11  12
HETATM   12  C   UNL     1      53.179  -8.004 -17.053  1.00  0.00    -0.031 C 
HETATM   13  C   UNL     1      51.883  -7.672 -17.223  1.00  0.00    -0.031 C 
BRANCH  13  14
HETATM   14  C   UNL     1      51.228  -6.349 -16.887  1.00  0.00     0.027 C 
BRANCH  14  15
HETATM   15  C   UNL     1      50.538  -6.402 -15.513  1.00  0.00     0.004 C 
BRANCH  15  16
HETATM   16  C   UNL     1      49.226  -5.596 -15.427  1.00  0.00     0.000 C 
BRANCH  16  17
HETATM   17  C   UNL     1      48.095  -6.353 -14.712  1.00  0.00     0.000 C 
BRANCH  17  18
HETATM   18  C   UNL     1      48.658  -7.387 -13.728  1.00  0.00     0.000 C 
BRANCH  18  19
HETATM   19  C   UNL     1      48.288  -7.028 -12.284  1.00  0.00    -0.000 C 
BRANCH  19  20
HETATM   20  C   UNL     1      49.540  -6.715 -11.455  1.00  0.00    -0.005 C 
HETATM   21  C   UNL     1      50.058  -5.311 -11.751  1.00  0.00     0.005 C 
ENDBRANCH  19  20
ENDBRANCH  18  19
ENDBRANCH  17  18
ENDBRANCH  16  17
ENDBRANCH  15  16
ENDBRANCH  14  15
ENDBRANCH  13  14
ENDBRANCH  11  12
ENDBRANCH  10  11
ENDBRANCH   9  10
ENDBRANCH   8   9
ENDBRANCH   7   8
ENDBRANCH   6   7
ENDBRANCH   5   6
ENDBRANCH   3   5
ENDBRANCH   1   3
TORSDOF 16
ENDMDL
MODEL 17
REMARK VINA RESULT:      -4.2      2.783      5.254
REMARK  16 active torsions:
REMARK  status: ('A' for Active; 'I' for Inactive)
REMARK    1  A    between atoms: O_1  and  C_20 
REMARK    2  A    between atoms: C_3  and  C_4 
REMARK    3  A    between atoms: C_3  and  C_5 
REMARK    4  A    between atoms: C_4  and  C_8 
REMARK    5  A    between atoms: C_5  and  C_11 
REMARK    6  A    between atoms: C_6  and  C_7 
REMARK    7  A    between atoms: C_6  and  C_9 
REMARK    8  A    between atoms: C_7  and  C_10 
REMARK    9  A    between atoms: C_8  and  C_12 
REMARK   10  A    between atoms: C_9  and  C_13 
REMARK   11  A    between atoms: C_10  and  C_14 
REMARK   12  A    between atoms: C_11  and  C_15 
REMARK   13  A    between atoms: C_12  and  C_16 
REMARK   14  A    between atoms: C_13  and  C_17 
REMARK   15  A    between atoms: C_14  and  C_18 
REMARK   16  A    between atoms: C_18  and  C_20 
ROOT
HETATM    1  O   UNL     1      52.341  -9.256 -13.654  1.00  0.00    -0.776 OA
HETATM    2  H   UNL     1      52.534 -10.190 -13.819  1.00  0.00     0.167 HD
ENDROOT
BRANCH   1   3
HETATM    3  C   UNL     1      53.327  -8.359 -13.444  1.00  0.00     0.139 C 
HETATM    4  O   UNL     1      54.297  -8.337 -14.190  1.00  0.00    -0.650 OA
BRANCH   3   5
HETATM    5  C   UNL     1      53.209  -7.399 -12.290  1.00  0.00     0.110 C 
BRANCH   5   6
HETATM    6  C   UNL     1      51.839  -7.453 -11.598  1.00  0.00     0.010 C 
BRANCH   6   7
HETATM    7  C   UNL     1      51.255  -6.046 -11.424  1.00  0.00     0.001 C 
BRANCH   7   8
HETATM    8  C   UNL     1      49.789  -6.004 -11.865  1.00  0.00     0.000 C 
BRANCH   8   9
HETATM    9  C   UNL     1      49.527  -6.993 -13.007  1.00  0.00     0.000 C 
BRANCH   9  10
HETATM   10  C   UNL     1      48.094  -6.851 -13.531  1.00  0.00     0.004 C 
BRANCH  10  11
HETATM   11  C   UNL     1      47.936  -7.502 -14.907  1.00  0.00     0.027 C 
BRANCH  11  12
HETATM   12  C   UNL     1      47.172  -6.571 -15.818  1.00  0.00    -0.031 C 
HETATM   13  C   UNL     1      47.668  -5.507 -16.482  1.00  0.00    -0.031 C 
BRANCH  13  14
HETATM   14  C   UNL     1      49.095  -5.002 -16.461  1.00  0.00     0.027 C 
BRANCH  14  15
HETATM   15  C   UNL     1      49.974  -5.774 -17.460  1.00  0.00     0.004 C 
BRANCH  15  16
HETATM   16  C   UNL     1      49.340  -5.961 -18.853  1.00  0.00     0.000 C 
BRANCH  16  17
HETATM   17  C   UNL     1      50.193  -6.826 -19.796  1.00  0.00     0.000 C 
BRANCH  17  18
HETATM   18  C   UNL     1      50.557  -6.057 -21.073  1.00  0.00     0.000 C 
BRANCH  18  19
HETATM   19  C   UNL     1      49.301  -5.513 -21.765  1.00  0.00    -0.000 C 
BRANCH  19  20
HETATM   20  C   UNL     1      49.358  -5.753 -23.278  1.00  0.00    -0.005 C 
HETATM   21  C   UNL     1      50.201  -6.979 -23.611  1.00  0.00     0.005 C 
ENDBRANCH  19  20
ENDBRANCH  18  19
ENDBRANCH  17  18
ENDBRANCH  16  17
ENDBRANCH  15  16
ENDBRANCH  14  15
ENDBRANCH  13  14
ENDBRANCH  11  12
ENDBRANCH  10  11
ENDBRANCH   9  10
ENDBRANCH   8   9
ENDBRANCH   7   8
ENDBRANCH   6   7
ENDBRANCH   5   6
ENDBRANCH   3   5
ENDBRANCH   1   3
TORSDOF 16
ENDMDL
MODEL 18
REMARK VINA RESULT:      -4.1      5.779      9.860
REMARK  16 active torsions:
REMARK  status: ('A' for Active; 'I' for Inactive)
REMARK    1  A    between atoms: O_1  and  C_20 
REMARK    2  A    between atoms: C_3  and  C_4 
REMARK    3  A    between atoms: C_3  and  C_5 
REMARK    4  A    between atoms: C_4  and  C_8 
REMARK    5  A    between atoms: C_5  and  C_11 
REMARK    6  A    between atoms: C_6  and  C_7 
REMARK    7  A    between atoms: C_6  and  C_9 
REMARK    8  A    between atoms: C_7  and  C_10 
REMARK    9  A    between atoms: C_8  and  C_12 
REMARK   10  A    between atoms: C_9  and  C_13 
REMARK   11  A    between atoms: C_10  and  C_14 
REMARK   12  A    between atoms: C_11  and  C_15 
REMARK   13  A    between atoms: C_12  and  C_16 
REMARK   14  A    between atoms: C_13  and  C_17 
REMARK   15  A    between atoms: C_14  and  C_18 
REMARK   16  A    between atoms: C_18  and  C_20 
ROOT
HETATM    1  O   UNL     1      48.689  -8.455 -19.453  1.00  0.00    -0.776 OA
HETATM    2  H   UNL     1      48.366  -9.365 -19.392  1.00  0.00     0.167 HD
ENDROOT
BRANCH   1   3
HETATM    3  C   UNL     1      47.844  -7.403 -19.432  1.00  0.00     0.139 C 
HETATM    4  O   UNL     1      46.677  -7.569 -19.103  1.00  0.00    -0.650 OA
BRANCH   3   5
HETATM    5  C   UNL     1      48.360  -6.041 -19.816  1.00  0.00     0.110 C 
BRANCH   5   6
HETATM    6  C   UNL     1      49.876  -6.018 -20.057  1.00  0.00     0.010 C 
BRANCH   6   7
HETATM    7  C   UNL     1      50.200  -5.511 -21.468  1.00  0.00     0.001 C 
BRANCH   7   8
HETATM    8  C   UNL     1      50.483  -6.680 -22.417  1.00  0.00     0.000 C 
BRANCH   8   9
HETATM    9  C   UNL     1      49.276  -6.962 -23.320  1.00  0.00     0.000 C 
BRANCH   9  10
HETATM   10  C   UNL     1      49.369  -6.154 -24.618  1.00  0.00     0.004 C 
BRANCH  10  11
HETATM   11  C   UNL     1      49.744  -7.045 -25.805  1.00  0.00     0.027 C 
BRANCH  11  12
HETATM   12  C   UNL     1      49.014  -8.361 -25.695  1.00  0.00    -0.031 C 
HETATM   13  C   UNL     1      49.558  -9.593 -25.764  1.00  0.00    -0.031 C 
BRANCH  13  14
HETATM   14  C   UNL     1      51.017  -9.936 -25.976  1.00  0.00     0.027 C 
BRANCH  14  15
HETATM   15  C   UNL     1      51.620 -10.599 -24.725  1.00  0.00     0.004 C 
BRANCH  15  16
HETATM   16  C   UNL     1      52.850  -9.868 -24.148  1.00  0.00     0.000 C 
BRANCH  16  17
HETATM   17  C   UNL     1      52.843  -8.356 -24.427  1.00  0.00     0.000 C 
BRANCH  17  18
HETATM   18  C   UNL     1      54.271  -7.797 -24.479  1.00  0.00     0.000 C 
BRANCH  18  19
HETATM   19  C   UNL     1      54.525  -7.061 -25.800  1.00  0.00    -0.000 C 
BRANCH  19  20
HETATM   20  C   UNL     1      53.251  -6.999 -26.651  1.00  0.00    -0.005 C 
HETATM   21  C   UNL     1      53.061  -5.611 -27.256  1.00  0.00     0.005 C 
ENDBRANCH  19  20
ENDBRANCH  18  19
ENDBRANCH  17  18
ENDBRANCH  16  17
ENDBRANCH  15  16
ENDBRANCH  14  15
ENDBRANCH  13  14
ENDBRANCH  11  12
ENDBRANCH  10  11
ENDBRANCH   9  10
ENDBRANCH   8   9
ENDBRANCH   7   8
ENDBRANCH   6   7
ENDBRANCH   5   6
ENDBRANCH   3   5
ENDBRANCH   1   3
TORSDOF 16
ENDMDL
MODEL 19
REMARK VINA RESULT:      -4.1      4.069      8.118
REMARK  16 active torsions:
REMARK  status: ('A' for Active; 'I' for Inactive)
REMARK    1  A    between atoms: O_1  and  C_20 
REMARK    2  A    between atoms: C_3  and  C_4 
REMARK    3  A    between atoms: C_3  and  C_5 
REMARK    4  A    between atoms: C_4  and  C_8 
REMARK    5  A    between atoms: C_5  and  C_11 
REMARK    6  A    between atoms: C_6  and  C_7 
REMARK    7  A    between atoms: C_6  and  C_9 
REMARK    8  A    between atoms: C_7  and  C_10 
REMARK    9  A    between atoms: C_8  and  C_12 
REMARK   10  A    between atoms: C_9  and  C_13 
REMARK   11  A    between atoms: C_10  and  C_14 
REMARK   12  A    between atoms: C_11  and  C_15 
REMARK   13  A    between atoms: C_12  and  C_16 
REMARK   14  A    between atoms: C_13  and  C_17 
REMARK   15  A    between atoms: C_14  and  C_18 
REMARK   16  A    between atoms: C_18  and  C_20 
ROOT
HETATM    1  O   UNL     1      48.590  -8.036 -19.465  1.00  0.00    -0.776 OA
HETATM    2  H   UNL     1      47.888  -7.959 -20.127  1.00  0.00     0.167 HD
ENDROOT
BRANCH   1   3
HETATM    3  C   UNL     1      48.313  -8.056 -18.144  1.00  0.00     0.139 C 
HETATM    4  O   UNL     1      48.230  -9.127 -17.557  1.00  0.00    -0.650 OA
BRANCH   3   5
HETATM    5  C   UNL     1      48.111  -6.751 -17.419  1.00  0.00     0.110 C 
BRANCH   5   6
HETATM    6  C   UNL     1      49.330  -5.822 -17.501  1.00  0.00     0.010 C 
BRANCH   6   7
HETATM    7  C   UNL     1      49.627  -5.184 -16.138  1.00  0.00     0.001 C 
BRANCH   7   8
HETATM    8  C   UNL     1      49.527  -6.222 -15.015  1.00  0.00     0.000 C 
BRANCH   8   9
HETATM    9  C   UNL     1      49.247  -5.550 -13.665  1.00  0.00     0.000 C 
BRANCH   9  10
HETATM   10  C   UNL     1      49.335  -6.568 -12.523  1.00  0.00     0.004 C 
BRANCH  10  11
HETATM   11  C   UNL     1      48.014  -7.320 -12.343  1.00  0.00     0.027 C 
BRANCH  11  12
HETATM   12  C   UNL     1      47.255  -6.730 -11.179  1.00  0.00    -0.031 C 
HETATM   13  C   UNL     1      47.417  -7.031  -9.875  1.00  0.00    -0.031 C 
BRANCH  13  14
HETATM   14  C   UNL     1      48.387  -8.032  -9.283  1.00  0.00     0.027 C 
BRANCH  14  15
HETATM   15  C   UNL     1      49.704  -7.353  -8.868  1.00  0.00     0.004 C 
BRANCH  15  16
HETATM   16  C   UNL     1      49.566  -5.856  -8.522  1.00  0.00     0.000 C 
BRANCH  16  17
HETATM   17  C   UNL     1      49.944  -5.533  -7.067  1.00  0.00     0.000 C 
BRANCH  17  18
HETATM   18  C   UNL     1      48.698  -5.465  -6.174  1.00  0.00     0.000 C 
BRANCH  18  19
HETATM   19  C   UNL     1      48.438  -6.812  -5.489  1.00  0.00    -0.000 C 
BRANCH  19  20
HETATM   20  C   UNL     1      48.887  -6.782  -4.024  1.00  0.00    -0.005 C 
HETATM   21  C   UNL     1      50.323  -7.277  -3.878  1.00  0.00     0.005 C 
ENDBRANCH  19  20
ENDBRANCH  18  19
ENDBRANCH  17  18
ENDBRANCH  16  17
ENDBRANCH  15  16
ENDBRANCH  14  15
ENDBRANCH  13  14
ENDBRANCH  11  12
ENDBRANCH  10  11
ENDBRANCH   9  10
ENDBRANCH   8   9
ENDBRANCH   7   8
ENDBRANCH   6   7
ENDBRANCH   5   6
ENDBRANCH   3   5
ENDBRANCH   1   3
TORSDOF 16
ENDMDL
MODEL 20
REMARK VINA RESULT:      -4.1     11.341     13.072
REMARK  16 active torsions:
REMARK  status: ('A' for Active; 'I' for Inactive)
REMARK    1  A    between atoms: O_1  and  C_20 
REMARK    2  A    between atoms: C_3  and  C_4 
REMARK    3  A    between atoms: C_3  and  C_5 
REMARK    4  A    between atoms: C_4  and  C_8 
REMARK    5  A    between atoms: C_5  and  C_11 
REMARK    6  A    between atoms: C_6  and  C_7 
REMARK    7  A    between atoms: C_6  and  C_9 
REMARK    8  A    between atoms: C_7  and  C_10 
REMARK    9  A    between atoms: C_8  and  C_12 
REMARK   10  A    between atoms: C_9  and  C_13 
REMARK   11  A    between atoms: C_10  and  C_14 
REMARK   12  A    between atoms: C_11  and  C_15 
REMARK   13  A    between atoms: C_12  and  C_16 
REMARK   14  A    between atoms: C_13  and  C_17 
REMARK   15  A    between atoms: C_14  and  C_18 
REMARK   16  A    between atoms: C_18  and  C_20 
ROOT
HETATM    1  O   UNL     1      55.419  -0.185 -16.909  1.00  0.00    -0.776 OA
HETATM    2  H   UNL     1      54.480   0.024 -16.797  1.00  0.00     0.167 HD
ENDROOT
BRANCH   1   3
HETATM    3  C   UNL     1      56.381   0.546 -16.307  1.00  0.00     0.139 C 
HETATM    4  O   UNL     1      56.720   0.278 -15.162  1.00  0.00    -0.650 OA
BRANCH   3   5
HETATM    5  C   UNL     1      57.018   1.681 -17.064  1.00  0.00     0.110 C 
BRANCH   5   6
HETATM    6  C   UNL     1      58.437   1.359 -17.552  1.00  0.00     0.010 C 
BRANCH   6   7
HETATM    7  C   UNL     1      58.417   0.830 -18.992  1.00  0.00     0.001 C 
BRANCH   7   8
HETATM    8  C   UNL     1      57.082   1.150 -19.673  1.00  0.00     0.000 C 
BRANCH   8   9
HETATM    9  C   UNL     1      56.812   0.189 -20.837  1.00  0.00     0.000 C 
BRANCH   9  10
HETATM   10  C   UNL     1      56.651   0.960 -22.151  1.00  0.00     0.004 C 
BRANCH  10  11
HETATM   11  C   UNL     1      57.956   1.648 -22.560  1.00  0.00     0.027 C 
BRANCH  11  12
HETATM   12  C   UNL     1      57.670   3.083 -22.935  1.00  0.00    -0.031 C 
HETATM   13  C   UNL     1      57.965   4.180 -22.210  1.00  0.00    -0.031 C 
BRANCH  13  14
HETATM   14  C   UNL     1      58.640   4.224 -20.855  1.00  0.00     0.027 C 
BRANCH  14  15
HETATM   15  C   UNL     1      57.664   4.697 -19.763  1.00  0.00     0.004 C 
BRANCH  15  16
HETATM   16  C   UNL     1      58.347   5.227 -18.485  1.00  0.00     0.000 C 
BRANCH  16  17
HETATM   17  C   UNL     1      57.423   5.223 -17.257  1.00  0.00     0.000 C 
BRANCH  17  18
HETATM   18  C   UNL     1      56.387   6.352 -17.341  1.00  0.00     0.000 C 
BRANCH  18  19
HETATM   19  C   UNL     1      55.057   5.925 -16.708  1.00  0.00    -0.000 C 
BRANCH  19  20
HETATM   20  C   UNL     1      53.884   6.189 -17.659  1.00  0.00    -0.005 C 
HETATM   21  C   UNL     1      54.244   7.246 -18.698  1.00  0.00     0.005 C 
ENDBRANCH  19  20
ENDBRANCH  18  19
ENDBRANCH  17  18
ENDBRANCH  16  17
ENDBRANCH  15  16
ENDBRANCH  14  15
ENDBRANCH  13  14
ENDBRANCH  11  12
ENDBRANCH  10  11
ENDBRANCH   9  10
ENDBRANCH   8   9
ENDBRANCH   7   8
ENDBRANCH   6   7
ENDBRANCH   5   6
ENDBRANCH   3   5
ENDBRANCH   1   3
TORSDOF 16
ENDMDL
