MODEL 1
REMARK VINA RESULT:      -5.8      0.000      0.000
REMARK  15 active torsions:
REMARK  status: ('A' for Active; 'I' for Inactive)
REMARK    1  A    between atoms: O_1  and  C_23 
REMARK    2  A    between atoms: C_3  and  C_7 
REMARK    3  A    between atoms: C_3  and  C_8 
REMARK    4  A    between atoms: C_4  and  C_10 
REMARK    5  A    between atoms: C_4  and  C_11 
REMARK    6  A    between atoms: C_5  and  C_12 
REMARK    7  A    between atoms: C_5  and  C_13 
REMARK    8  A    between atoms: C_6  and  C_15 
REMARK    9  A    between atoms: C_6  and  C_16 
REMARK   10  A    between atoms: C_7  and  C_23 
REMARK   11  A    between atoms: C_9  and  C_17 
REMARK   12  A    between atoms: C_9  and  C_18 
REMARK   13  A    between atoms: C_14  and  C_19 
REMARK   14  A    between atoms: C_14  and  C_20 
REMARK   15  A    between atoms: C_21  and  C_22 
ROOT
HETATM    1  O   UNL     1      48.349  -5.572 -20.434  1.00  0.00    -0.776 OA
HETATM    2  H   UNL     1      48.002  -4.692 -20.635  1.00  0.00     0.167 HD
ENDROOT
BRANCH   1   3
HETATM    3  C   UNL     1      47.554  -6.548 -19.948  1.00  0.00     0.139 C 
HETATM    4  O   UNL     1      46.778  -7.132 -20.691  1.00  0.00    -0.650 OA
BRANCH   3   5
HETATM    5  C   UNL     1      47.628  -6.916 -18.494  1.00  0.00     0.113 C 
BRANCH   5   6
HETATM    6  C   UNL     1      49.085  -6.993 -18.023  1.00  0.00     0.037 C 
BRANCH   6   7
HETATM    7  C   UNL     1      49.506  -5.693 -17.382  1.00  0.00    -0.030 C 
HETATM    8  C   UNL     1      50.041  -5.529 -16.153  1.00  0.00    -0.027 C 
BRANCH   8   9
HETATM    9  C   UNL     1      50.344  -6.602 -15.129  1.00  0.00     0.053 C 
BRANCH   9  10
HETATM   10  C   UNL     1      49.092  -7.015 -14.398  1.00  0.00    -0.027 C 
HETATM   11  C   UNL     1      48.696  -6.555 -13.197  1.00  0.00    -0.027 C 
BRANCH  11  12
HETATM   12  C   UNL     1      49.403  -5.498 -12.389  1.00  0.00     0.053 C 
BRANCH  12  13
HETATM   13  C   UNL     1      50.019  -6.093 -11.147  1.00  0.00    -0.027 C 
HETATM   14  C   UNL     1      51.286  -6.526 -11.008  1.00  0.00    -0.027 C 
BRANCH  14  15
HETATM   15  C   UNL     1      52.338  -6.550 -12.085  1.00  0.00     0.053 C 
BRANCH  15  16
HETATM   16  C   UNL     1      53.129  -7.833 -11.955  1.00  0.00    -0.027 C 
HETATM   17  C   UNL     1      53.479  -8.694 -12.932  1.00  0.00    -0.027 C 
BRANCH  17  18
HETATM   18  C   UNL     1      53.179  -8.571 -14.403  1.00  0.00     0.053 C 
BRANCH  18  19
HETATM   19  C   UNL     1      54.204  -7.695 -15.085  1.00  0.00    -0.027 C 
HETATM   20  C   UNL     1      54.180  -7.240 -16.355  1.00  0.00    -0.027 C 
BRANCH  20  21
HETATM   21  C   UNL     1      53.093  -7.455 -17.378  1.00  0.00     0.053 C 
BRANCH  21  22
HETATM   22  C   UNL     1      53.390  -8.665 -18.233  1.00  0.00    -0.027 C 
HETATM   23  C   UNL     1      53.896  -8.675 -19.482  1.00  0.00    -0.031 C 
BRANCH  23  24
HETATM   24  C   UNL     1      54.262  -7.473 -20.312  1.00  0.00     0.022 C 
HETATM   25  C   UNL     1      53.528  -7.440 -21.647  1.00  0.00     0.009 C 
ENDBRANCH  23  24
ENDBRANCH  21  22
ENDBRANCH  20  21
ENDBRANCH  18  19
ENDBRANCH  17  18
ENDBRANCH  15  16
ENDBRANCH  14  15
ENDBRANCH  12  13
ENDBRANCH  11  12
ENDBRANCH   9  10
ENDBRANCH   8   9
ENDBRANCH   6   7
ENDBRANCH   5   6
ENDBRANCH   3   5
ENDBRANCH   1   3
TORSDOF 15
ENDMDL
MODEL 2
REMARK VINA RESULT:      -5.3     22.751     24.948
REMARK  15 active torsions:
REMARK  status: ('A' for Active; 'I' for Inactive)
REMARK    1  A    between atoms: O_1  and  C_23 
REMARK    2  A    between atoms: C_3  and  C_7 
REMARK    3  A    between atoms: C_3  and  C_8 
REMARK    4  A    between atoms: C_4  and  C_10 
REMARK    5  A    between atoms: C_4  and  C_11 
REMARK    6  A    between atoms: C_5  and  C_12 
REMARK    7  A    between atoms: C_5  and  C_13 
REMARK    8  A    between atoms: C_6  and  C_15 
REMARK    9  A    between atoms: C_6  and  C_16 
REMARK   10  A    between atoms: C_7  and  C_23 
REMARK   11  A    between atoms: C_9  and  C_17 
REMARK   12  A    between atoms: C_9  and  C_18 
REMARK   13  A    between atoms: C_14  and  C_19 
REMARK   14  A    between atoms: C_14  and  C_20 
REMARK   15  A    between atoms: C_21  and  C_22 
ROOT
HETATM    1  O   UNL     1      27.422 -17.594 -17.879  1.00  0.00    -0.776 OA
HETATM    2  H   UNL     1      26.992 -18.456 -17.957  1.00  0.00     0.167 HD
ENDROOT
BRANCH   1   3
HETATM    3  C   UNL     1      27.013 -16.682 -16.971  1.00  0.00     0.139 C 
HETATM    4  O   UNL     1      26.021 -16.899 -16.290  1.00  0.00    -0.650 OA
BRANCH   3   5
HETATM    5  C   UNL     1      27.782 -15.403 -16.800  1.00  0.00     0.113 C 
BRANCH   5   6
HETATM    6  C   UNL     1      27.804 -14.971 -15.329  1.00  0.00     0.037 C 
BRANCH   6   7
HETATM    7  C   UNL     1      28.615 -15.940 -14.502  1.00  0.00    -0.030 C 
HETATM    8  C   UNL     1      28.183 -16.669 -13.451  1.00  0.00    -0.027 C 
BRANCH   8   9
HETATM    9  C   UNL     1      26.792 -16.691 -12.854  1.00  0.00     0.053 C 
BRANCH   9  10
HETATM   10  C   UNL     1      26.845 -16.471 -11.363  1.00  0.00    -0.027 C 
HETATM   11  C   UNL     1      27.242 -15.342 -10.749  1.00  0.00    -0.027 C 
BRANCH  11  12
HETATM   12  C   UNL     1      27.653 -14.069 -11.442  1.00  0.00     0.053 C 
BRANCH  12  13
HETATM   13  C   UNL     1      29.120 -13.790 -11.230  1.00  0.00    -0.027 C 
HETATM   14  C   UNL     1      29.652 -12.896 -10.375  1.00  0.00    -0.027 C 
BRANCH  14  15
HETATM   15  C   UNL     1      28.886 -11.953  -9.487  1.00  0.00     0.053 C 
BRANCH  15  16
HETATM   16  C   UNL     1      29.347 -12.153  -8.061  1.00  0.00    -0.027 C 
HETATM   17  C   UNL     1      28.774 -12.909  -7.102  1.00  0.00    -0.027 C 
BRANCH  17  18
HETATM   18  C   UNL     1      27.536 -13.756  -7.232  1.00  0.00     0.053 C 
BRANCH  18  19
HETATM   19  C   UNL     1      27.694 -15.051  -6.470  1.00  0.00    -0.027 C 
HETATM   20  C   UNL     1      28.228 -16.206  -6.917  1.00  0.00    -0.027 C 
BRANCH  20  21
HETATM   21  C   UNL     1      28.845 -16.460  -8.271  1.00  0.00     0.053 C 
BRANCH  21  22
HETATM   22  C   UNL     1      30.287 -16.008  -8.297  1.00  0.00    -0.027 C 
HETATM   23  C   UNL     1      31.207 -16.275  -9.245  1.00  0.00    -0.031 C 
BRANCH  23  24
HETATM   24  C   UNL     1      31.003 -17.104 -10.486  1.00  0.00     0.022 C 
HETATM   25  C   UNL     1      31.498 -16.403 -11.744  1.00  0.00     0.009 C 
ENDBRANCH  23  24
ENDBRANCH  21  22
ENDBRANCH  20  21
ENDBRANCH  18  19
ENDBRANCH  17  18
ENDBRANCH  15  16
ENDBRANCH  14  15
ENDBRANCH  12  13
ENDBRANCH  11  12
ENDBRANCH   9  10
ENDBRANCH   8   9
ENDBRANCH   6   7
ENDBRANCH   5   6
ENDBRANCH   3   5
ENDBRANCH   1   3
TORSDOF 15
ENDMDL
MODEL 3
REMARK VINA RESULT:      -5.2     19.667     22.732
REMARK  15 active torsions:
REMARK  status: ('A' for Active; 'I' for Inactive)
REMARK    1  A    between atoms: O_1  and  C_23 
REMARK    2  A    between atoms: C_3  and  C_7 
REMARK    3  A    between atoms: C_3  and  C_8 
REMARK    4  A    between atoms: C_4  and  C_10 
REMARK    5  A    between atoms: C_4  and  C_11 
REMARK    6  A    between atoms: C_5  and  C_12 
REMARK    7  A    between atoms: C_5  and  C_13 
REMARK    8  A    between atoms: C_6  and  C_15 
REMARK    9  A    between atoms: C_6  and  C_16 
REMARK   10  A    between atoms: C_7  and  C_23 
REMARK   11  A    between atoms: C_9  and  C_17 
REMARK   12  A    between atoms: C_9  and  C_18 
REMARK   13  A    between atoms: C_14  and  C_19 
REMARK   14  A    between atoms: C_14  and  C_20 
REMARK   15  A    between atoms: C_21  and  C_22 
ROOT
HETATM    1  O   UNL     1      29.200 -11.810  -9.654  1.00  0.00    -0.776 OA
HETATM    2  H   UNL     1      30.078 -11.811 -10.060  1.00  0.00     0.167 HD
ENDROOT
BRANCH   1   3
HETATM    3  C   UNL     1      28.399 -12.895  -9.708  1.00  0.00     0.139 C 
HETATM    4  O   UNL     1      27.270 -12.847  -9.240  1.00  0.00    -0.650 OA
BRANCH   3   5
HETATM    5  C   UNL     1      28.897 -14.159 -10.349  1.00  0.00     0.113 C 
BRANCH   5   6
HETATM    6  C   UNL     1      27.787 -14.835 -11.162  1.00  0.00     0.037 C 
BRANCH   6   7
HETATM    7  C   UNL     1      28.297 -16.100 -11.810  1.00  0.00    -0.030 C 
HETATM    8  C   UNL     1      27.754 -16.750 -12.861  1.00  0.00    -0.027 C 
BRANCH   8   9
HETATM    9  C   UNL     1      26.512 -16.368 -13.639  1.00  0.00     0.053 C 
BRANCH   9  10
HETATM   10  C   UNL     1      26.740 -16.521 -15.122  1.00  0.00    -0.027 C 
HETATM   11  C   UNL     1      27.206 -15.567 -15.947  1.00  0.00    -0.027 C 
BRANCH  11  12
HETATM   12  C   UNL     1      27.642 -14.187 -15.530  1.00  0.00     0.053 C 
BRANCH  12  13
HETATM   13  C   UNL     1      29.042 -13.896 -16.010  1.00  0.00    -0.027 C 
HETATM   14  C   UNL     1      30.109 -13.602 -15.243  1.00  0.00    -0.027 C 
BRANCH  14  15
HETATM   15  C   UNL     1      30.110 -13.454 -13.745  1.00  0.00     0.053 C 
BRANCH  15  16
HETATM   16  C   UNL     1      29.741 -12.027 -13.403  1.00  0.00    -0.027 C 
HETATM   17  C   UNL     1      30.449 -11.140 -12.675  1.00  0.00    -0.027 C 
BRANCH  17  18
HETATM   18  C   UNL     1      31.798 -11.355 -12.040  1.00  0.00     0.053 C 
BRANCH  18  19
HETATM   19  C   UNL     1      32.806 -10.371 -12.585  1.00  0.00    -0.027 C 
HETATM   20  C   UNL     1      33.473 -10.442 -13.755  1.00  0.00    -0.027 C 
BRANCH  20  21
HETATM   21  C   UNL     1      33.327 -11.497 -14.823  1.00  0.00     0.053 C 
BRANCH  21  22
HETATM   22  C   UNL     1      32.375 -11.040 -15.904  1.00  0.00    -0.027 C 
HETATM   23  C   UNL     1      32.696 -10.519 -17.105  1.00  0.00    -0.031 C 
BRANCH  23  24
HETATM   24  C   UNL     1      34.084 -10.259 -17.629  1.00  0.00     0.022 C 
HETATM   25  C   UNL     1      34.548  -8.832 -17.365  1.00  0.00     0.009 C 
ENDBRANCH  23  24
ENDBRANCH  21  22
ENDBRANCH  20  21
ENDBRANCH  18  19
ENDBRANCH  17  18
ENDBRANCH  15  16
ENDBRANCH  14  15
ENDBRANCH  12  13
ENDBRANCH  11  12
ENDBRANCH   9  10
ENDBRANCH   8   9
ENDBRANCH   6   7
ENDBRANCH   5   6
ENDBRANCH   3   5
ENDBRANCH   1   3
TORSDOF 15
ENDMDL
MODEL 4
REMARK VINA RESULT:      -5.0     20.564     23.540
REMARK  15 active torsions:
REMARK  status: ('A' for Active; 'I' for Inactive)
REMARK    1  A    between atoms: O_1  and  C_23 
REMARK    2  A    between atoms: C_3  and  C_7 
REMARK    3  A    between atoms: C_3  and  C_8 
REMARK    4  A    between atoms: C_4  and  C_10 
REMARK    5  A    between atoms: C_4  and  C_11 
REMARK    6  A    between atoms: C_5  and  C_12 
REMARK    7  A    between atoms: C_5  and  C_13 
REMARK    8  A    between atoms: C_6  and  C_15 
REMARK    9  A    between atoms: C_6  and  C_16 
REMARK   10  A    between atoms: C_7  and  C_23 
REMARK   11  A    between atoms: C_9  and  C_17 
REMARK   12  A    between atoms: C_9  and  C_18 
REMARK   13  A    between atoms: C_14  and  C_19 
REMARK   14  A    between atoms: C_14  and  C_20 
REMARK   15  A    between atoms: C_21  and  C_22 
ROOT
HETATM    1  O   UNL     1      26.961 -17.053 -14.093  1.00  0.00    -0.776 OA
HETATM    2  H   UNL     1      26.737 -16.415 -14.785  1.00  0.00     0.167 HD
ENDROOT
BRANCH   1   3
HETATM    3  C   UNL     1      27.060 -16.682 -12.799  1.00  0.00     0.139 C 
HETATM    4  O   UNL     1      26.230 -17.066 -11.987  1.00  0.00    -0.650 OA
BRANCH   3   5
HETATM    5  C   UNL     1      28.193 -15.799 -12.360  1.00  0.00     0.113 C 
BRANCH   5   6
HETATM    6  C   UNL     1      27.705 -14.370 -12.098  1.00  0.00     0.037 C 
BRANCH   6   7
HETATM    7  C   UNL     1      27.623 -13.591 -13.389  1.00  0.00    -0.030 C 
HETATM    8  C   UNL     1      28.495 -12.661 -13.833  1.00  0.00    -0.027 C 
BRANCH   8   9
HETATM    9  C   UNL     1      29.756 -12.178 -13.148  1.00  0.00     0.053 C 
BRANCH   9  10
HETATM   10  C   UNL     1      30.837 -13.226 -13.215  1.00  0.00    -0.027 C 
HETATM   11  C   UNL     1      31.894 -13.212 -14.047  1.00  0.00    -0.027 C 
BRANCH  11  12
HETATM   12  C   UNL     1      32.222 -12.114 -15.025  1.00  0.00     0.053 C 
BRANCH  12  13
HETATM   13  C   UNL     1      32.221 -12.636 -16.441  1.00  0.00    -0.027 C 
HETATM   14  C   UNL     1      31.242 -12.482 -17.352  1.00  0.00    -0.027 C 
BRANCH  14  15
HETATM   15  C   UNL     1      29.921 -11.796 -17.129  1.00  0.00     0.053 C 
BRANCH  15  16
HETATM   16  C   UNL     1      29.025 -12.079 -18.314  1.00  0.00    -0.027 C 
HETATM   17  C   UNL     1      27.924 -12.856 -18.353  1.00  0.00    -0.027 C 
BRANCH  17  18
HETATM   18  C   UNL     1      27.307 -13.618 -17.210  1.00  0.00     0.053 C 
BRANCH  18  19
HETATM   19  C   UNL     1      27.520 -15.104 -17.383  1.00  0.00    -0.027 C 
HETATM   20  C   UNL     1      28.511 -15.857 -16.864  1.00  0.00    -0.027 C 
BRANCH  20  21
HETATM   21  C   UNL     1      29.613 -15.401 -15.940  1.00  0.00     0.053 C 
BRANCH  21  22
HETATM   22  C   UNL     1      30.330 -16.584 -15.333  1.00  0.00    -0.027 C 
HETATM   23  C   UNL     1      31.606 -16.961 -15.546  1.00  0.00    -0.031 C 
BRANCH  23  24
HETATM   24  C   UNL     1      32.598 -16.291 -16.460  1.00  0.00     0.022 C 
HETATM   25  C   UNL     1      32.419 -16.700 -17.916  1.00  0.00     0.009 C 
ENDBRANCH  23  24
ENDBRANCH  21  22
ENDBRANCH  20  21
ENDBRANCH  18  19
ENDBRANCH  17  18
ENDBRANCH  15  16
ENDBRANCH  14  15
ENDBRANCH  12  13
ENDBRANCH  11  12
ENDBRANCH   9  10
ENDBRANCH   8   9
ENDBRANCH   6   7
ENDBRANCH   5   6
ENDBRANCH   3   5
ENDBRANCH   1   3
TORSDOF 15
ENDMDL
MODEL 5
REMARK VINA RESULT:      -5.0     20.271     23.433
REMARK  15 active torsions:
REMARK  status: ('A' for Active; 'I' for Inactive)
REMARK    1  A    between atoms: O_1  and  C_23 
REMARK    2  A    between atoms: C_3  and  C_7 
REMARK    3  A    between atoms: C_3  and  C_8 
REMARK    4  A    between atoms: C_4  and  C_10 
REMARK    5  A    between atoms: C_4  and  C_11 
REMARK    6  A    between atoms: C_5  and  C_12 
REMARK    7  A    between atoms: C_5  and  C_13 
REMARK    8  A    between atoms: C_6  and  C_15 
REMARK    9  A    between atoms: C_6  and  C_16 
REMARK   10  A    between atoms: C_7  and  C_23 
REMARK   11  A    between atoms: C_9  and  C_17 
REMARK   12  A    between atoms: C_9  and  C_18 
REMARK   13  A    between atoms: C_14  and  C_19 
REMARK   14  A    between atoms: C_14  and  C_20 
REMARK   15  A    between atoms: C_21  and  C_22 
ROOT
HETATM    1  O   UNL     1      35.268  -8.232 -12.253  1.00  0.00    -0.776 OA
HETATM    2  H   UNL     1      36.230  -8.160 -12.187  1.00  0.00     0.167 HD
ENDROOT
BRANCH   1   3
HETATM    3  C   UNL     1      34.672  -9.385 -12.625  1.00  0.00     0.139 C 
HETATM    4  O   UNL     1      34.888  -9.858 -13.732  1.00  0.00    -0.650 OA
BRANCH   3   5
HETATM    5  C   UNL     1      33.746 -10.087 -11.672  1.00  0.00     0.113 C 
BRANCH   5   6
HETATM    6  C   UNL     1      32.790 -11.020 -12.425  1.00  0.00     0.037 C 
BRANCH   6   7
HETATM    7  C   UNL     1      31.384 -10.472 -12.402  1.00  0.00    -0.030 C 
HETATM    8  C   UNL     1      30.236 -11.182 -12.382  1.00  0.00    -0.027 C 
BRANCH   8   9
HETATM    9  C   UNL     1      30.084 -12.688 -12.378  1.00  0.00     0.053 C 
BRANCH   9  10
HETATM   10  C   UNL     1      28.915 -13.112 -13.232  1.00  0.00    -0.027 C 
HETATM   11  C   UNL     1      27.824 -13.769 -12.799  1.00  0.00    -0.027 C 
BRANCH  11  12
HETATM   12  C   UNL     1      27.543 -14.150 -11.369  1.00  0.00     0.053 C 
BRANCH  12  13
HETATM   13  C   UNL     1      28.252 -15.431 -11.004  1.00  0.00    -0.027 C 
HETATM   14  C   UNL     1      27.813 -16.377 -10.154  1.00  0.00    -0.027 C 
BRANCH  14  15
HETATM   15  C   UNL     1      26.540 -16.327  -9.351  1.00  0.00     0.053 C 
BRANCH  15  16
HETATM   16  C   UNL     1      26.797 -16.962  -8.002  1.00  0.00    -0.027 C 
HETATM   17  C   UNL     1      27.141 -16.352  -6.850  1.00  0.00    -0.027 C 
BRANCH  17  18
HETATM   18  C   UNL     1      27.335 -14.875  -6.626  1.00  0.00     0.053 C 
BRANCH  18  19
HETATM   19  C   UNL     1      28.694 -14.600  -6.026  1.00  0.00    -0.027 C 
HETATM   20  C   UNL     1      29.834 -14.300  -6.680  1.00  0.00    -0.027 C 
BRANCH  20  21
HETATM   21  C   UNL     1      30.009 -14.113  -8.167  1.00  0.00     0.053 C 
BRANCH  21  22
HETATM   22  C   UNL     1      29.552 -12.737  -8.593  1.00  0.00    -0.027 C 
HETATM   23  C   UNL     1      30.322 -11.651  -8.802  1.00  0.00    -0.031 C 
BRANCH  23  24
HETATM   24  C   UNL     1      31.817 -11.566  -8.637  1.00  0.00     0.022 C 
HETATM   25  C   UNL     1      32.222 -10.845  -7.357  1.00  0.00     0.009 C 
ENDBRANCH  23  24
ENDBRANCH  21  22
ENDBRANCH  20  21
ENDBRANCH  18  19
ENDBRANCH  17  18
ENDBRANCH  15  16
ENDBRANCH  14  15
ENDBRANCH  12  13
ENDBRANCH  11  12
ENDBRANCH   9  10
ENDBRANCH   8   9
ENDBRANCH   6   7
ENDBRANCH   5   6
ENDBRANCH   3   5
ENDBRANCH   1   3
TORSDOF 15
ENDMDL
MODEL 6
REMARK VINA RESULT:      -4.9      2.599      7.095
REMARK  15 active torsions:
REMARK  status: ('A' for Active; 'I' for Inactive)
REMARK    1  A    between atoms: O_1  and  C_23 
REMARK    2  A    between atoms: C_3  and  C_7 
REMARK    3  A    between atoms: C_3  and  C_8 
REMARK    4  A    between atoms: C_4  and  C_10 
REMARK    5  A    between atoms: C_4  and  C_11 
REMARK    6  A    between atoms: C_5  and  C_12 
REMARK    7  A    between atoms: C_5  and  C_13 
REMARK    8  A    between atoms: C_6  and  C_15 
REMARK    9  A    between atoms: C_6  and  C_16 
REMARK   10  A    between atoms: C_7  and  C_23 
REMARK   11  A    between atoms: C_9  and  C_17 
REMARK   12  A    between atoms: C_9  and  C_18 
REMARK   13  A    between atoms: C_14  and  C_19 
REMARK   14  A    between atoms: C_14  and  C_20 
REMARK   15  A    between atoms: C_21  and  C_22 
ROOT
HETATM    1  O   UNL     1      45.556  -4.808 -16.778  1.00  0.00    -0.776 OA
HETATM    2  H   UNL     1      44.608  -4.771 -16.591  1.00  0.00     0.167 HD
ENDROOT
BRANCH   1   3
HETATM    3  C   UNL     1      46.273  -5.931 -16.557  1.00  0.00     0.139 C 
HETATM    4  O   UNL     1      45.884  -6.756 -15.743  1.00  0.00    -0.650 OA
BRANCH   3   5
HETATM    5  C   UNL     1      47.548  -6.163 -17.317  1.00  0.00     0.113 C 
BRANCH   5   6
HETATM    6  C   UNL     1      48.768  -5.802 -16.462  1.00  0.00     0.037 C 
BRANCH   6   7
HETATM    7  C   UNL     1      49.206  -6.985 -15.633  1.00  0.00    -0.030 C 
HETATM    8  C   UNL     1      50.467  -7.295 -15.262  1.00  0.00    -0.027 C 
BRANCH   8   9
HETATM    9  C   UNL     1      51.736  -6.536 -15.587  1.00  0.00     0.053 C 
BRANCH   9  10
HETATM   10  C   UNL     1      52.882  -7.485 -15.828  1.00  0.00    -0.027 C 
HETATM   11  C   UNL     1      53.391  -8.347 -14.929  1.00  0.00    -0.027 C 
BRANCH  11  12
HETATM   12  C   UNL     1      52.870  -8.562 -13.532  1.00  0.00     0.053 C 
BRANCH  12  13
HETATM   13  C   UNL     1      53.594  -7.679 -12.546  1.00  0.00    -0.027 C 
HETATM   14  C   UNL     1      53.040  -6.978 -11.539  1.00  0.00    -0.027 C 
BRANCH  14  15
HETATM   15  C   UNL     1      51.571  -6.892 -11.221  1.00  0.00     0.053 C 
BRANCH  15  16
HETATM   16  C   UNL     1      50.932  -5.900 -12.167  1.00  0.00    -0.027 C 
HETATM   17  C   UNL     1      49.789  -5.207 -11.992  1.00  0.00    -0.027 C 
BRANCH  17  18
HETATM   18  C   UNL     1      48.879  -5.241 -10.792  1.00  0.00     0.053 C 
BRANCH  18  19
HETATM   19  C   UNL     1      47.586  -5.949 -11.124  1.00  0.00    -0.027 C 
HETATM   20  C   UNL     1      46.852  -6.740 -10.314  1.00  0.00    -0.027 C 
BRANCH  20  21
HETATM   21  C   UNL     1      47.123  -7.060  -8.865  1.00  0.00     0.053 C 
BRANCH  21  22
HETATM   22  C   UNL     1      48.386  -7.877  -8.721  1.00  0.00    -0.027 C 
HETATM   23  C   UNL     1      49.545  -7.493  -8.152  1.00  0.00    -0.031 C 
BRANCH  23  24
HETATM   24  C   UNL     1      49.844  -6.147  -7.546  1.00  0.00     0.022 C 
HETATM   25  C   UNL     1      50.366  -6.253  -6.119  1.00  0.00     0.009 C 
ENDBRANCH  23  24
ENDBRANCH  21  22
ENDBRANCH  20  21
ENDBRANCH  18  19
ENDBRANCH  17  18
ENDBRANCH  15  16
ENDBRANCH  14  15
ENDBRANCH  12  13
ENDBRANCH  11  12
ENDBRANCH   9  10
ENDBRANCH   8   9
ENDBRANCH   6   7
ENDBRANCH   5   6
ENDBRANCH   3   5
ENDBRANCH   1   3
TORSDOF 15
ENDMDL
MODEL 7
REMARK VINA RESULT:      -4.9      4.417      7.447
REMARK  15 active torsions:
REMARK  status: ('A' for Active; 'I' for Inactive)
REMARK    1  A    between atoms: O_1  and  C_23 
REMARK    2  A    between atoms: C_3  and  C_7 
REMARK    3  A    between atoms: C_3  and  C_8 
REMARK    4  A    between atoms: C_4  and  C_10 
REMARK    5  A    between atoms: C_4  and  C_11 
REMARK    6  A    between atoms: C_5  and  C_12 
REMARK    7  A    between atoms: C_5  and  C_13 
REMARK    8  A    between atoms: C_6  and  C_15 
REMARK    9  A    between atoms: C_6  and  C_16 
REMARK   10  A    between atoms: C_7  and  C_23 
REMARK   11  A    between atoms: C_9  and  C_17 
REMARK   12  A    between atoms: C_9  and  C_18 
REMARK   13  A    between atoms: C_14  and  C_19 
REMARK   14  A    between atoms: C_14  and  C_20 
REMARK   15  A    between atoms: C_21  and  C_22 
ROOT
HETATM    1  O   UNL     1      46.526  -6.592 -14.746  1.00  0.00    -0.776 OA
HETATM    2  H   UNL     1      46.127  -6.853 -15.587  1.00  0.00     0.167 HD
ENDROOT
BRANCH   1   3
HETATM    3  C   UNL     1      47.482  -7.341 -14.157  1.00  0.00     0.139 C 
HETATM    4  O   UNL     1      47.174  -8.193 -13.335  1.00  0.00    -0.650 OA
BRANCH   3   5
HETATM    5  C   UNL     1      48.925  -7.127 -14.517  1.00  0.00     0.113 C 
BRANCH   5   6
HETATM    6  C   UNL     1      49.520  -5.958 -13.723  1.00  0.00     0.037 C 
BRANCH   6   7
HETATM    7  C   UNL     1      48.540  -5.468 -12.683  1.00  0.00    -0.030 C 
HETATM    8  C   UNL     1      48.752  -5.364 -11.354  1.00  0.00    -0.027 C 
BRANCH   8   9
HETATM    9  C   UNL     1      50.012  -5.711 -10.591  1.00  0.00     0.053 C 
BRANCH   9  10
HETATM   10  C   UNL     1      49.976  -7.142 -10.117  1.00  0.00    -0.027 C 
HETATM   11  C   UNL     1      49.328  -7.592  -9.027  1.00  0.00    -0.027 C 
BRANCH  11  12
HETATM   12  C   UNL     1      48.472  -6.756  -8.112  1.00  0.00     0.053 C 
BRANCH  12  13
HETATM   13  C   UNL     1      48.239  -7.462  -6.799  1.00  0.00    -0.027 C 
HETATM   14  C   UNL     1      48.966  -7.326  -5.674  1.00  0.00    -0.027 C 
BRANCH  14  15
HETATM   15  C   UNL     1      50.196  -6.474  -5.511  1.00  0.00     0.053 C 
BRANCH  15  16
HETATM   16  C   UNL     1      50.726  -6.659  -4.106  1.00  0.00    -0.027 C 
HETATM   17  C   UNL     1      51.675  -7.519  -3.685  1.00  0.00    -0.027 C 
BRANCH  17  18
HETATM   18  C   UNL     1      52.455  -8.495  -4.525  1.00  0.00     0.053 C 
BRANCH  18  19
HETATM   19  C   UNL     1      53.704  -7.846  -5.075  1.00  0.00    -0.027 C 
HETATM   20  C   UNL     1      53.949  -7.488  -6.352  1.00  0.00    -0.027 C 
BRANCH  20  21
HETATM   21  C   UNL     1      53.008  -7.602  -7.525  1.00  0.00     0.053 C 
BRANCH  21  22
HETATM   22  C   UNL     1      53.378  -8.777  -8.400  1.00  0.00    -0.027 C 
HETATM   23  C   UNL     1      53.674  -8.753  -9.715  1.00  0.00    -0.031 C 
BRANCH  23  24
HETATM   24  C   UNL     1      53.681  -7.542 -10.611  1.00  0.00     0.022 C 
HETATM   25  C   UNL     1      53.422  -7.895 -12.070  1.00  0.00     0.009 C 
ENDBRANCH  23  24
ENDBRANCH  21  22
ENDBRANCH  20  21
ENDBRANCH  18  19
ENDBRANCH  17  18
ENDBRANCH  15  16
ENDBRANCH  14  15
ENDBRANCH  12  13
ENDBRANCH  11  12
ENDBRANCH   9  10
ENDBRANCH   8   9
ENDBRANCH   6   7
ENDBRANCH   5   6
ENDBRANCH   3   5
ENDBRANCH   1   3
TORSDOF 15
ENDMDL
MODEL 8
REMARK VINA RESULT:      -4.9      4.984      9.510
REMARK  15 active torsions:
REMARK  status: ('A' for Active; 'I' for Inactive)
REMARK    1  A    between atoms: O_1  and  C_23 
REMARK    2  A    between atoms: C_3  and  C_7 
REMARK    3  A    between atoms: C_3  and  C_8 
REMARK    4  A    between atoms: C_4  and  C_10 
REMARK    5  A    between atoms: C_4  and  C_11 
REMARK    6  A    between atoms: C_5  and  C_12 
REMARK    7  A    between atoms: C_5  and  C_13 
REMARK    8  A    between atoms: C_6  and  C_15 
REMARK    9  A    between atoms: C_6  and  C_16 
REMARK   10  A    between atoms: C_7  and  C_23 
REMARK   11  A    between atoms: C_9  and  C_17 
REMARK   12  A    between atoms: C_9  and  C_18 
REMARK   13  A    between atoms: C_14  and  C_19 
REMARK   14  A    between atoms: C_14  and  C_20 
REMARK   15  A    between atoms: C_21  and  C_22 
ROOT
HETATM    1  O   UNL     1      50.083  -8.204 -18.762  1.00  0.00    -0.776 OA
HETATM    2  H   UNL     1      50.664  -8.893 -18.410  1.00  0.00     0.167 HD
ENDROOT
BRANCH   1   3
HETATM    3  C   UNL     1      48.877  -7.951 -18.211  1.00  0.00     0.139 C 
HETATM    4  O   UNL     1      48.299  -8.821 -17.575  1.00  0.00    -0.650 OA
BRANCH   3   5
HETATM    5  C   UNL     1      48.249  -6.597 -18.379  1.00  0.00     0.113 C 
BRANCH   5   6
HETATM    6  C   UNL     1      48.549  -6.023 -19.769  1.00  0.00     0.037 C 
BRANCH   6   7
HETATM    7  C   UNL     1      47.765  -6.759 -20.829  1.00  0.00    -0.030 C 
HETATM    8  C   UNL     1      48.236  -7.245 -21.997  1.00  0.00    -0.027 C 
BRANCH   8   9
HETATM    9  C   UNL     1      49.654  -7.170 -22.521  1.00  0.00     0.053 C 
BRANCH   9  10
HETATM   10  C   UNL     1      49.765  -6.148 -23.624  1.00  0.00    -0.027 C 
HETATM   11  C   UNL     1      49.382  -6.325 -24.901  1.00  0.00    -0.027 C 
BRANCH  11  12
HETATM   12  C   UNL     1      48.716  -7.560 -25.450  1.00  0.00     0.053 C 
BRANCH  12  13
HETATM   13  C   UNL     1      49.635  -8.291 -26.397  1.00  0.00    -0.027 C 
HETATM   14  C   UNL     1      50.272  -9.453 -26.161  1.00  0.00    -0.027 C 
BRANCH  14  15
HETATM   15  C   UNL     1      50.236 -10.240 -24.878  1.00  0.00     0.053 C 
BRANCH  15  16
HETATM   16  C   UNL     1      51.619 -10.791 -24.613  1.00  0.00    -0.027 C 
HETATM   17  C   UNL     1      52.709 -10.124 -24.183  1.00  0.00    -0.027 C 
BRANCH  17  18
HETATM   18  C   UNL     1      52.804  -8.660 -23.843  1.00  0.00     0.053 C 
BRANCH  18  19
HETATM   19  C   UNL     1      54.043  -8.050 -24.456  1.00  0.00    -0.027 C 
HETATM   20  C   UNL     1      54.126  -7.320 -25.587  1.00  0.00    -0.027 C 
BRANCH  20  21
HETATM   21  C   UNL     1      52.987  -6.896 -26.481  1.00  0.00     0.053 C 
BRANCH  21  22
HETATM   22  C   UNL     1      53.331  -5.625 -27.223  1.00  0.00    -0.027 C 
HETATM   23  C   UNL     1      52.472  -4.723 -27.737  1.00  0.00    -0.031 C 
BRANCH  23  24
HETATM   24  C   UNL     1      50.968  -4.794 -27.700  1.00  0.00     0.022 C 
HETATM   25  C   UNL     1      50.312  -3.466 -28.053  1.00  0.00     0.009 C 
ENDBRANCH  23  24
ENDBRANCH  21  22
ENDBRANCH  20  21
ENDBRANCH  18  19
ENDBRANCH  17  18
ENDBRANCH  15  16
ENDBRANCH  14  15
ENDBRANCH  12  13
ENDBRANCH  11  12
ENDBRANCH   9  10
ENDBRANCH   8   9
ENDBRANCH   6   7
ENDBRANCH   5   6
ENDBRANCH   3   5
ENDBRANCH   1   3
TORSDOF 15
ENDMDL
MODEL 9
REMARK VINA RESULT:      -4.8     18.608     21.897
REMARK  15 active torsions:
REMARK  status: ('A' for Active; 'I' for Inactive)
REMARK    1  A    between atoms: O_1  and  C_23 
REMARK    2  A    between atoms: C_3  and  C_7 
REMARK    3  A    between atoms: C_3  and  C_8 
REMARK    4  A    between atoms: C_4  and  C_10 
REMARK    5  A    between atoms: C_4  and  C_11 
REMARK    6  A    between atoms: C_5  and  C_12 
REMARK    7  A    between atoms: C_5  and  C_13 
REMARK    8  A    between atoms: C_6  and  C_15 
REMARK    9  A    between atoms: C_6  and  C_16 
REMARK   10  A    between atoms: C_7  and  C_23 
REMARK   11  A    between atoms: C_9  and  C_17 
REMARK   12  A    between atoms: C_9  and  C_18 
REMARK   13  A    between atoms: C_14  and  C_19 
REMARK   14  A    between atoms: C_14  and  C_20 
REMARK   15  A    between atoms: C_21  and  C_22 
ROOT
HETATM    1  O   UNL     1      35.075 -10.162 -20.133  1.00  0.00    -0.776 OA
HETATM    2  H   UNL     1      36.018 -10.018 -20.293  1.00  0.00     0.167 HD
ENDROOT
BRANCH   1   3
HETATM    3  C   UNL     1      34.544 -10.039 -18.897  1.00  0.00     0.139 C 
HETATM    4  O   UNL     1      35.075  -9.308 -18.073  1.00  0.00    -0.650 OA
BRANCH   3   5
HETATM    5  C   UNL     1      33.298 -10.799 -18.541  1.00  0.00     0.113 C 
BRANCH   5   6
HETATM    6  C   UNL     1      32.604 -10.173 -17.327  1.00  0.00     0.037 C 
BRANCH   6   7
HETATM    7  C   UNL     1      31.464 -11.045 -16.857  1.00  0.00    -0.030 C 
HETATM    8  C   UNL     1      31.482 -11.921 -15.830  1.00  0.00    -0.027 C 
BRANCH   8   9
HETATM    9  C   UNL     1      32.641 -12.238 -14.909  1.00  0.00     0.053 C 
BRANCH   9  10
HETATM   10  C   UNL     1      32.939 -11.071 -14.001  1.00  0.00    -0.027 C 
HETATM   11  C   UNL     1      32.337 -10.817 -12.825  1.00  0.00    -0.027 C 
BRANCH  11  12
HETATM   12  C   UNL     1      31.293 -11.685 -12.172  1.00  0.00     0.053 C 
BRANCH  12  13
HETATM   13  C   UNL     1      29.908 -11.290 -12.620  1.00  0.00    -0.027 C 
HETATM   14  C   UNL     1      28.906 -12.123 -12.961  1.00  0.00    -0.027 C 
BRANCH  14  15
HETATM   15  C   UNL     1      28.981 -13.626 -13.012  1.00  0.00     0.053 C 
BRANCH  15  16
HETATM   16  C   UNL     1      27.621 -14.187 -12.659  1.00  0.00    -0.027 C 
HETATM   17  C   UNL     1      27.041 -15.311 -13.127  1.00  0.00    -0.027 C 
BRANCH  17  18
HETATM   18  C   UNL     1      27.624 -16.294 -14.108  1.00  0.00     0.053 C 
BRANCH  18  19
HETATM   19  C   UNL     1      26.910 -16.208 -15.436  1.00  0.00    -0.027 C 
HETATM   20  C   UNL     1      27.153 -15.348 -16.446  1.00  0.00    -0.027 C 
BRANCH  20  21
HETATM   21  C   UNL     1      28.238 -14.300 -16.507  1.00  0.00     0.053 C 
BRANCH  21  22
HETATM   22  C   UNL     1      29.387 -14.765 -17.371  1.00  0.00    -0.027 C 
HETATM   23  C   UNL     1      30.536 -15.336 -16.960  1.00  0.00    -0.031 C 
BRANCH  23  24
HETATM   24  C   UNL     1      30.938 -15.621 -15.537  1.00  0.00     0.022 C 
HETATM   25  C   UNL     1      31.341 -17.075 -15.324  1.00  0.00     0.009 C 
ENDBRANCH  23  24
ENDBRANCH  21  22
ENDBRANCH  20  21
ENDBRANCH  18  19
ENDBRANCH  17  18
ENDBRANCH  15  16
ENDBRANCH  14  15
ENDBRANCH  12  13
ENDBRANCH  11  12
ENDBRANCH   9  10
ENDBRANCH   8   9
ENDBRANCH   6   7
ENDBRANCH   5   6
ENDBRANCH   3   5
ENDBRANCH   1   3
TORSDOF 15
ENDMDL
MODEL 10
REMARK VINA RESULT:      -4.8     19.589     22.620
REMARK  15 active torsions:
REMARK  status: ('A' for Active; 'I' for Inactive)
REMARK    1  A    between atoms: O_1  and  C_23 
REMARK    2  A    between atoms: C_3  and  C_7 
REMARK    3  A    between atoms: C_3  and  C_8 
REMARK    4  A    between atoms: C_4  and  C_10 
REMARK    5  A    between atoms: C_4  and  C_11 
REMARK    6  A    between atoms: C_5  and  C_12 
REMARK    7  A    between atoms: C_5  and  C_13 
REMARK    8  A    between atoms: C_6  and  C_15 
REMARK    9  A    between atoms: C_6  and  C_16 
REMARK   10  A    between atoms: C_7  and  C_23 
REMARK   11  A    between atoms: C_9  and  C_17 
REMARK   12  A    between atoms: C_9  and  C_18 
REMARK   13  A    between atoms: C_14  and  C_19 
REMARK   14  A    between atoms: C_14  and  C_20 
REMARK   15  A    between atoms: C_21  and  C_22 
ROOT
HETATM    1  O   UNL     1      29.224 -11.779  -9.609  1.00  0.00    -0.776 OA
HETATM    2  H   UNL     1      30.106 -11.777 -10.006  1.00  0.00     0.167 HD
ENDROOT
BRANCH   1   3
HETATM    3  C   UNL     1      28.421 -12.862  -9.684  1.00  0.00     0.139 C 
HETATM    4  O   UNL     1      27.289 -12.818  -9.224  1.00  0.00    -0.650 OA
BRANCH   3   5
HETATM    5  C   UNL     1      28.921 -14.118 -10.338  1.00  0.00     0.113 C 
BRANCH   5   6
HETATM    6  C   UNL     1      27.829 -14.758 -11.202  1.00  0.00     0.037 C 
BRANCH   6   7
HETATM    7  C   UNL     1      28.348 -16.003 -11.882  1.00  0.00    -0.030 C 
HETATM    8  C   UNL     1      27.838 -16.602 -12.979  1.00  0.00    -0.027 C 
BRANCH   8   9
HETATM    9  C   UNL     1      26.630 -16.174 -13.785  1.00  0.00     0.053 C 
BRANCH   9  10
HETATM   10  C   UNL     1      26.910 -16.272 -15.264  1.00  0.00    -0.027 C 
HETATM   11  C   UNL     1      27.427 -15.296 -16.032  1.00  0.00    -0.027 C 
BRANCH  11  12
HETATM   12  C   UNL     1      27.875 -13.943 -15.542  1.00  0.00     0.053 C 
BRANCH  12  13
HETATM   13  C   UNL     1      29.290 -13.655 -15.978  1.00  0.00    -0.027 C 
HETATM   14  C   UNL     1      30.342 -13.405 -15.175  1.00  0.00    -0.027 C 
BRANCH  14  15
HETATM   15  C   UNL     1      30.309 -13.313 -13.673  1.00  0.00     0.053 C 
BRANCH  15  16
HETATM   16  C   UNL     1      29.995 -11.885 -13.285  1.00  0.00    -0.027 C 
HETATM   17  C   UNL     1      30.704 -11.070 -12.479  1.00  0.00    -0.027 C 
BRANCH  17  18
HETATM   18  C   UNL     1      32.001 -11.386 -11.780  1.00  0.00     0.053 C 
BRANCH  18  19
HETATM   19  C   UNL     1      33.007 -10.281 -12.000  1.00  0.00    -0.027 C 
HETATM   20  C   UNL     1      33.679  -9.996 -13.135  1.00  0.00    -0.027 C 
BRANCH  20  21
HETATM   21  C   UNL     1      33.541 -10.683 -14.471  1.00  0.00     0.053 C 
BRANCH  21  22
HETATM   22  C   UNL     1      34.784 -11.475 -14.800  1.00  0.00    -0.027 C 
HETATM   23  C   UNL     1      34.950 -12.809 -14.707  1.00  0.00    -0.031 C 
BRANCH  23  24
HETATM   24  C   UNL     1      33.927 -13.809 -14.233  1.00  0.00     0.022 C 
HETATM   25  C   UNL     1      34.090 -14.155 -12.758  1.00  0.00     0.009 C 
ENDBRANCH  23  24
ENDBRANCH  21  22
ENDBRANCH  20  21
ENDBRANCH  18  19
ENDBRANCH  17  18
ENDBRANCH  15  16
ENDBRANCH  14  15
ENDBRANCH  12  13
ENDBRANCH  11  12
ENDBRANCH   9  10
ENDBRANCH   8   9
ENDBRANCH   6   7
ENDBRANCH   5   6
ENDBRANCH   3   5
ENDBRANCH   1   3
TORSDOF 15
ENDMDL
MODEL 11
REMARK VINA RESULT:      -4.8     22.125     24.851
REMARK  15 active torsions:
REMARK  status: ('A' for Active; 'I' for Inactive)
REMARK    1  A    between atoms: O_1  and  C_23 
REMARK    2  A    between atoms: C_3  and  C_7 
REMARK    3  A    between atoms: C_3  and  C_8 
REMARK    4  A    between atoms: C_4  and  C_10 
REMARK    5  A    between atoms: C_4  and  C_11 
REMARK    6  A    between atoms: C_5  and  C_12 
REMARK    7  A    between atoms: C_5  and  C_13 
REMARK    8  A    between atoms: C_6  and  C_15 
REMARK    9  A    between atoms: C_6  and  C_16 
REMARK   10  A    between atoms: C_7  and  C_23 
REMARK   11  A    between atoms: C_9  and  C_17 
REMARK   12  A    between atoms: C_9  and  C_18 
REMARK   13  A    between atoms: C_14  and  C_19 
REMARK   14  A    between atoms: C_14  and  C_20 
REMARK   15  A    between atoms: C_21  and  C_22 
ROOT
HETATM    1  O   UNL     1      28.514 -16.550  -5.257  1.00  0.00    -0.776 OA
HETATM    2  H   UNL     1      28.370 -16.881  -4.360  1.00  0.00     0.167 HD
ENDROOT
BRANCH   1   3
HETATM    3  C   UNL     1      27.538 -15.910  -5.937  1.00  0.00     0.139 C 
HETATM    4  O   UNL     1      27.237 -14.762  -5.641  1.00  0.00    -0.650 OA
BRANCH   3   5
HETATM    5  C   UNL     1      26.826 -16.612  -7.058  1.00  0.00     0.113 C 
BRANCH   5   6
HETATM    6  C   UNL     1      26.983 -15.842  -8.373  1.00  0.00     0.037 C 
BRANCH   6   7
HETATM    7  C   UNL     1      26.350 -16.602  -9.514  1.00  0.00    -0.030 C 
HETATM    8  C   UNL     1      26.689 -16.539 -10.819  1.00  0.00    -0.027 C 
BRANCH   8   9
HETATM    9  C   UNL     1      27.778 -15.697 -11.449  1.00  0.00     0.053 C 
BRANCH   9  10
HETATM   10  C   UNL     1      27.212 -14.414 -12.004  1.00  0.00    -0.027 C 
HETATM   11  C   UNL     1      27.904 -13.285 -12.235  1.00  0.00    -0.027 C 
BRANCH  11  12
HETATM   12  C   UNL     1      29.388 -13.113 -12.035  1.00  0.00     0.053 C 
BRANCH  12  13
HETATM   13  C   UNL     1      30.077 -12.822 -13.345  1.00  0.00    -0.027 C 
HETATM   14  C   UNL     1      30.943 -13.624 -13.992  1.00  0.00    -0.027 C 
BRANCH  14  15
HETATM   15  C   UNL     1      31.440 -14.962 -13.513  1.00  0.00     0.053 C 
BRANCH  15  16
HETATM   16  C   UNL     1      31.312 -15.956 -14.646  1.00  0.00    -0.027 C 
HETATM   17  C   UNL     1      30.181 -16.443 -15.197  1.00  0.00    -0.027 C 
BRANCH  17  18
HETATM   18  C   UNL     1      28.765 -16.094 -14.824  1.00  0.00     0.053 C 
BRANCH  18  19
HETATM   19  C   UNL     1      27.875 -16.099 -16.045  1.00  0.00    -0.027 C 
HETATM   20  C   UNL     1      27.415 -15.033 -16.731  1.00  0.00    -0.027 C 
BRANCH  20  21
HETATM   21  C   UNL     1      27.727 -13.580 -16.470  1.00  0.00     0.053 C 
BRANCH  21  22
HETATM   22  C   UNL     1      27.985 -12.844 -17.764  1.00  0.00    -0.027 C 
HETATM   23  C   UNL     1      29.180 -12.498 -18.281  1.00  0.00    -0.031 C 
BRANCH  23  24
HETATM   24  C   UNL     1      30.531 -12.755 -17.667  1.00  0.00     0.022 C 
HETATM   25  C   UNL     1      31.079 -14.133 -18.016  1.00  0.00     0.009 C 
ENDBRANCH  23  24
ENDBRANCH  21  22
ENDBRANCH  20  21
ENDBRANCH  18  19
ENDBRANCH  17  18
ENDBRANCH  15  16
ENDBRANCH  14  15
ENDBRANCH  12  13
ENDBRANCH  11  12
ENDBRANCH   9  10
ENDBRANCH   8   9
ENDBRANCH   6   7
ENDBRANCH   5   6
ENDBRANCH   3   5
ENDBRANCH   1   3
TORSDOF 15
ENDMDL
MODEL 12
REMARK VINA RESULT:      -4.8     18.752     22.469
REMARK  15 active torsions:
REMARK  status: ('A' for Active; 'I' for Inactive)
REMARK    1  A    between atoms: O_1  and  C_23 
REMARK    2  A    between atoms: C_3  and  C_7 
REMARK    3  A    between atoms: C_3  and  C_8 
REMARK    4  A    between atoms: C_4  and  C_10 
REMARK    5  A    between atoms: C_4  and  C_11 
REMARK    6  A    between atoms: C_5  and  C_12 
REMARK    7  A    between atoms: C_5  and  C_13 
REMARK    8  A    between atoms: C_6  and  C_15 
REMARK    9  A    between atoms: C_6  and  C_16 
REMARK   10  A    between atoms: C_7  and  C_23 
REMARK   11  A    between atoms: C_9  and  C_17 
REMARK   12  A    between atoms: C_9  and  C_18 
REMARK   13  A    between atoms: C_14  and  C_19 
REMARK   14  A    between atoms: C_14  and  C_20 
REMARK   15  A    between atoms: C_21  and  C_22 
ROOT
HETATM    1  O   UNL     1      36.300  -8.074 -18.400  1.00  0.00    -0.776 OA
HETATM    2  H   UNL     1      36.757  -7.466 -18.997  1.00  0.00     0.167 HD
ENDROOT
BRANCH   1   3
HETATM    3  C   UNL     1      35.355  -7.639 -17.539  1.00  0.00     0.139 C 
HETATM    4  O   UNL     1      35.524  -6.598 -16.920  1.00  0.00    -0.650 OA
BRANCH   3   5
HETATM    5  C   UNL     1      34.096  -8.436 -17.348  1.00  0.00     0.113 C 
BRANCH   5   6
HETATM    6  C   UNL     1      34.413  -9.848 -16.842  1.00  0.00     0.037 C 
BRANCH   6   7
HETATM    7  C   UNL     1      33.925 -10.886 -17.823  1.00  0.00    -0.030 C 
HETATM    8  C   UNL     1      32.652 -11.299 -18.003  1.00  0.00    -0.027 C 
BRANCH   8   9
HETATM    9  C   UNL     1      31.417 -10.823 -17.269  1.00  0.00     0.053 C 
BRANCH   9  10
HETATM   10  C   UNL     1      31.029 -11.795 -16.183  1.00  0.00    -0.027 C 
HETATM   11  C   UNL     1      30.155 -12.810 -16.313  1.00  0.00    -0.027 C 
BRANCH  11  12
HETATM   12  C   UNL     1      29.446 -13.195 -17.585  1.00  0.00     0.053 C 
BRANCH  12  13
HETATM   13  C   UNL     1      27.955 -13.271 -17.368  1.00  0.00    -0.027 C 
HETATM   14  C   UNL     1      27.265 -14.326 -16.895  1.00  0.00    -0.027 C 
BRANCH  14  15
HETATM   15  C   UNL     1      27.839 -15.669 -16.530  1.00  0.00     0.053 C 
BRANCH  15  16
HETATM   16  C   UNL     1      26.872 -16.368 -15.600  1.00  0.00    -0.027 C 
HETATM   17  C   UNL     1      26.863 -16.355 -14.251  1.00  0.00    -0.027 C 
BRANCH  17  18
HETATM   18  C   UNL     1      27.813 -15.619 -13.343  1.00  0.00     0.053 C 
BRANCH  18  19
HETATM   19  C   UNL     1      27.283 -14.241 -13.022  1.00  0.00    -0.027 C 
HETATM   20  C   UNL     1      27.474 -13.531 -11.891  1.00  0.00    -0.027 C 
BRANCH  20  21
HETATM   21  C   UNL     1      28.311 -13.925 -10.699  1.00  0.00     0.053 C 
BRANCH  21  22
HETATM   22  C   UNL     1      28.892 -12.706 -10.023  1.00  0.00    -0.027 C 
HETATM   23  C   UNL     1      29.987 -12.013 -10.393  1.00  0.00    -0.031 C 
BRANCH  23  24
HETATM   24  C   UNL     1      30.888 -12.316 -11.561  1.00  0.00     0.022 C 
HETATM   25  C   UNL     1      31.099 -11.108 -12.465  1.00  0.00     0.009 C 
ENDBRANCH  23  24
ENDBRANCH  21  22
ENDBRANCH  20  21
ENDBRANCH  18  19
ENDBRANCH  17  18
ENDBRANCH  15  16
ENDBRANCH  14  15
ENDBRANCH  12  13
ENDBRANCH  11  12
ENDBRANCH   9  10
ENDBRANCH   8   9
ENDBRANCH   6   7
ENDBRANCH   5   6
ENDBRANCH   3   5
ENDBRANCH   1   3
TORSDOF 15
ENDMDL
MODEL 13
REMARK VINA RESULT:      -4.7     18.919     22.424
REMARK  15 active torsions:
REMARK  status: ('A' for Active; 'I' for Inactive)
REMARK    1  A    between atoms: O_1  and  C_23 
REMARK    2  A    between atoms: C_3  and  C_7 
REMARK    3  A    between atoms: C_3  and  C_8 
REMARK    4  A    between atoms: C_4  and  C_10 
REMARK    5  A    between atoms: C_4  and  C_11 
REMARK    6  A    between atoms: C_5  and  C_12 
REMARK    7  A    between atoms: C_5  and  C_13 
REMARK    8  A    between atoms: C_6  and  C_15 
REMARK    9  A    between atoms: C_6  and  C_16 
REMARK   10  A    between atoms: C_7  and  C_23 
REMARK   11  A    between atoms: C_9  and  C_17 
REMARK   12  A    between atoms: C_9  and  C_18 
REMARK   13  A    between atoms: C_14  and  C_19 
REMARK   14  A    between atoms: C_14  and  C_20 
REMARK   15  A    between atoms: C_21  and  C_22 
ROOT
HETATM    1  O   UNL     1      34.810  -9.820 -15.344  1.00  0.00    -0.776 OA
HETATM    2  H   UNL     1      35.365  -9.130 -15.733  1.00  0.00     0.167 HD
ENDROOT
BRANCH   1   3
HETATM    3  C   UNL     1      34.606  -9.891 -14.012  1.00  0.00     0.139 C 
HETATM    4  O   UNL     1      35.256  -9.185 -13.254  1.00  0.00    -0.650 OA
BRANCH   3   5
HETATM    5  C   UNL     1      33.576 -10.837 -13.464  1.00  0.00     0.113 C 
BRANCH   5   6
HETATM    6  C   UNL     1      32.681 -10.136 -12.435  1.00  0.00     0.037 C 
BRANCH   6   7
HETATM    7  C   UNL     1      32.896 -10.719 -11.059  1.00  0.00    -0.030 C 
HETATM    8  C   UNL     1      32.120 -11.629 -10.432  1.00  0.00    -0.027 C 
BRANCH   8   9
HETATM    9  C   UNL     1      30.857 -12.280 -10.955  1.00  0.00     0.053 C 
BRANCH   9  10
HETATM   10  C   UNL     1      31.186 -13.478 -11.810  1.00  0.00    -0.027 C 
HETATM   11  C   UNL     1      30.920 -13.602 -13.123  1.00  0.00    -0.027 C 
BRANCH  11  12
HETATM   12  C   UNL     1      30.297 -12.542 -13.993  1.00  0.00     0.053 C 
BRANCH  12  13
HETATM   13  C   UNL     1      28.803 -12.492 -13.794  1.00  0.00    -0.027 C 
HETATM   14  C   UNL     1      27.873 -13.123 -14.535  1.00  0.00    -0.027 C 
BRANCH  14  15
HETATM   15  C   UNL     1      28.133 -13.974 -15.749  1.00  0.00     0.053 C 
BRANCH  15  16
HETATM   16  C   UNL     1      27.301 -15.233 -15.642  1.00  0.00    -0.027 C 
HETATM   17  C   UNL     1      27.276 -16.284 -16.486  1.00  0.00    -0.027 C 
BRANCH  17  18
HETATM   18  C   UNL     1      28.093 -16.464 -17.739  1.00  0.00     0.053 C 
BRANCH  18  19
HETATM   19  C   UNL     1      27.305 -16.036 -18.955  1.00  0.00    -0.027 C 
HETATM   20  C   UNL     1      27.583 -15.019 -19.797  1.00  0.00    -0.027 C 
BRANCH  20  21
HETATM   21  C   UNL     1      28.780 -14.102 -19.752  1.00  0.00     0.053 C 
BRANCH  21  22
HETATM   22  C   UNL     1      28.390 -12.734 -19.242  1.00  0.00    -0.027 C 
HETATM   23  C   UNL     1      29.125 -11.914 -18.467  1.00  0.00    -0.031 C 
BRANCH  23  24
HETATM   24  C   UNL     1      30.501 -12.192 -17.918  1.00  0.00     0.022 C 
HETATM   25  C   UNL     1      31.157 -10.948 -17.333  1.00  0.00     0.009 C 
ENDBRANCH  23  24
ENDBRANCH  21  22
ENDBRANCH  20  21
ENDBRANCH  18  19
ENDBRANCH  17  18
ENDBRANCH  15  16
ENDBRANCH  14  15
ENDBRANCH  12  13
ENDBRANCH  11  12
ENDBRANCH   9  10
ENDBRANCH   8   9
ENDBRANCH   6   7
ENDBRANCH   5   6
ENDBRANCH   3   5
ENDBRANCH   1   3
TORSDOF 15
ENDMDL
MODEL 14
REMARK VINA RESULT:      -4.7      5.871     10.472
REMARK  15 active torsions:
REMARK  status: ('A' for Active; 'I' for Inactive)
REMARK    1  A    between atoms: O_1  and  C_23 
REMARK    2  A    between atoms: C_3  and  C_7 
REMARK    3  A    between atoms: C_3  and  C_8 
REMARK    4  A    between atoms: C_4  and  C_10 
REMARK    5  A    between atoms: C_4  and  C_11 
REMARK    6  A    between atoms: C_5  and  C_12 
REMARK    7  A    between atoms: C_5  and  C_13 
REMARK    8  A    between atoms: C_6  and  C_15 
REMARK    9  A    between atoms: C_6  and  C_16 
REMARK   10  A    between atoms: C_7  and  C_23 
REMARK   11  A    between atoms: C_9  and  C_17 
REMARK   12  A    between atoms: C_9  and  C_18 
REMARK   13  A    between atoms: C_14  and  C_19 
REMARK   14  A    between atoms: C_14  and  C_20 
REMARK   15  A    between atoms: C_21  and  C_22 
ROOT
HETATM    1  O   UNL     1      51.081  -7.354 -19.685  1.00  0.00    -0.776 OA
HETATM    2  H   UNL     1      51.961  -7.431 -20.079  1.00  0.00     0.167 HD
ENDROOT
BRANCH   1   3
HETATM    3  C   UNL     1      50.120  -6.594 -20.253  1.00  0.00     0.139 C 
HETATM    4  O   UNL     1      49.014  -6.518 -19.737  1.00  0.00    -0.650 OA
BRANCH   3   5
HETATM    5  C   UNL     1      50.416  -5.839 -21.517  1.00  0.00     0.113 C 
BRANCH   5   6
HETATM    6  C   UNL     1      50.040  -6.669 -22.750  1.00  0.00     0.037 C 
BRANCH   6   7
HETATM    7  C   UNL     1      49.277  -5.827 -23.746  1.00  0.00    -0.030 C 
HETATM    8  C   UNL     1      49.406  -5.842 -25.089  1.00  0.00    -0.027 C 
BRANCH   8   9
HETATM    9  C   UNL     1      50.341  -6.699 -25.916  1.00  0.00     0.053 C 
BRANCH   9  10
HETATM   10  C   UNL     1      51.314  -5.843 -26.687  1.00  0.00    -0.027 C 
HETATM   11  C   UNL     1      52.559  -6.201 -27.049  1.00  0.00    -0.027 C 
BRANCH  11  12
HETATM   12  C   UNL     1      53.189  -7.546 -26.800  1.00  0.00     0.053 C 
BRANCH  12  13
HETATM   13  C   UNL     1      54.208  -7.466 -25.690  1.00  0.00    -0.027 C 
HETATM   14  C   UNL     1      54.038  -7.860 -24.414  1.00  0.00    -0.027 C 
BRANCH  14  15
HETATM   15  C   UNL     1      52.772  -8.417 -23.819  1.00  0.00     0.053 C 
BRANCH  15  16
HETATM   16  C   UNL     1      52.821  -9.926 -23.911  1.00  0.00    -0.027 C 
HETATM   17  C   UNL     1      52.009 -10.741 -24.615  1.00  0.00    -0.027 C 
BRANCH  17  18
HETATM   18  C   UNL     1      50.861 -10.335 -25.501  1.00  0.00     0.053 C 
BRANCH  18  19
HETATM   19  C   UNL     1      49.685  -9.875 -24.671  1.00  0.00    -0.027 C 
HETATM   20  C   UNL     1      48.401  -9.748 -25.066  1.00  0.00    -0.027 C 
BRANCH  20  21
HETATM   21  C   UNL     1      47.827 -10.089 -26.418  1.00  0.00     0.053 C 
BRANCH  21  22
HETATM   22  C   UNL     1      47.919  -8.908 -27.356  1.00  0.00    -0.027 C 
HETATM   23  C   UNL     1      47.071  -7.864 -27.437  1.00  0.00    -0.031 C 
BRANCH  23  24
HETATM   24  C   UNL     1      45.824  -7.655 -26.618  1.00  0.00     0.022 C 
HETATM   25  C   UNL     1      46.032  -6.658 -25.484  1.00  0.00     0.009 C 
ENDBRANCH  23  24
ENDBRANCH  21  22
ENDBRANCH  20  21
ENDBRANCH  18  19
ENDBRANCH  17  18
ENDBRANCH  15  16
ENDBRANCH  14  15
ENDBRANCH  12  13
ENDBRANCH  11  12
ENDBRANCH   9  10
ENDBRANCH   8   9
ENDBRANCH   6   7
ENDBRANCH   5   6
ENDBRANCH   3   5
ENDBRANCH   1   3
TORSDOF 15
ENDMDL
MODEL 15
REMARK VINA RESULT:      -4.7     19.720     22.974
REMARK  15 active torsions:
REMARK  status: ('A' for Active; 'I' for Inactive)
REMARK    1  A    between atoms: O_1  and  C_23 
REMARK    2  A    between atoms: C_3  and  C_7 
REMARK    3  A    between atoms: C_3  and  C_8 
REMARK    4  A    between atoms: C_4  and  C_10 
REMARK    5  A    between atoms: C_4  and  C_11 
REMARK    6  A    between atoms: C_5  and  C_12 
REMARK    7  A    between atoms: C_5  and  C_13 
REMARK    8  A    between atoms: C_6  and  C_15 
REMARK    9  A    between atoms: C_6  and  C_16 
REMARK   10  A    between atoms: C_7  and  C_23 
REMARK   11  A    between atoms: C_9  and  C_17 
REMARK   12  A    between atoms: C_9  and  C_18 
REMARK   13  A    between atoms: C_14  and  C_19 
REMARK   14  A    between atoms: C_14  and  C_20 
REMARK   15  A    between atoms: C_21  and  C_22 
ROOT
HETATM    1  O   UNL     1      27.734 -14.208  -9.993  1.00  0.00    -0.776 OA
HETATM    2  H   UNL     1      27.451 -15.010  -9.532  1.00  0.00     0.167 HD
ENDROOT
BRANCH   1   3
HETATM    3  C   UNL     1      28.005 -13.068  -9.322  1.00  0.00     0.139 C 
HETATM    4  O   UNL     1      27.176 -12.596  -8.557  1.00  0.00    -0.650 OA
BRANCH   3   5
HETATM    5  C   UNL     1      29.328 -12.385  -9.516  1.00  0.00     0.113 C 
BRANCH   5   6
HETATM    6  C   UNL     1      30.013 -12.871 -10.799  1.00  0.00     0.037 C 
BRANCH   6   7
HETATM    7  C   UNL     1      29.885 -11.840 -11.894  1.00  0.00    -0.030 C 
HETATM    8  C   UNL     1      30.856 -11.027 -12.362  1.00  0.00    -0.027 C 
BRANCH   8   9
HETATM    9  C   UNL     1      32.297 -10.955 -11.904  1.00  0.00     0.053 C 
BRANCH   9  10
HETATM   10  C   UNL     1      33.115 -10.100 -12.838  1.00  0.00    -0.027 C 
HETATM   11  C   UNL     1      33.793 -10.538 -13.914  1.00  0.00    -0.027 C 
BRANCH  11  12
HETATM   12  C   UNL     1      33.812 -11.959 -14.416  1.00  0.00     0.053 C 
BRANCH  12  13
HETATM   13  C   UNL     1      32.629 -12.228 -15.313  1.00  0.00    -0.027 C 
HETATM   14  C   UNL     1      31.723 -13.213 -15.173  1.00  0.00    -0.027 C 
BRANCH  14  15
HETATM   15  C   UNL     1      31.733 -14.284 -14.114  1.00  0.00     0.053 C 
BRANCH  15  16
HETATM   16  C   UNL     1      32.588 -15.433 -14.601  1.00  0.00    -0.027 C 
HETATM   17  C   UNL     1      32.180 -16.588 -15.165  1.00  0.00    -0.027 C 
BRANCH  17  18
HETATM   18  C   UNL     1      30.764 -17.004 -15.464  1.00  0.00     0.053 C 
BRANCH  18  19
HETATM   19  C   UNL     1      30.236 -16.266 -16.672  1.00  0.00    -0.027 C 
HETATM   20  C   UNL     1      28.990 -15.787 -16.862  1.00  0.00    -0.027 C 
BRANCH  20  21
HETATM   21  C   UNL     1      27.842 -15.827 -15.884  1.00  0.00     0.053 C 
BRANCH  21  22
HETATM   22  C   UNL     1      27.991 -14.751 -14.834  1.00  0.00    -0.027 C 
HETATM   23  C   UNL     1      28.219 -14.923 -13.517  1.00  0.00    -0.031 C 
BRANCH  23  24
HETATM   24  C   UNL     1      28.355 -16.238 -12.795  1.00  0.00     0.022 C 
HETATM   25  C   UNL     1      27.013 -16.925 -12.576  1.00  0.00     0.009 C 
ENDBRANCH  23  24
ENDBRANCH  21  22
ENDBRANCH  20  21
ENDBRANCH  18  19
ENDBRANCH  17  18
ENDBRANCH  15  16
ENDBRANCH  14  15
ENDBRANCH  12  13
ENDBRANCH  11  12
ENDBRANCH   9  10
ENDBRANCH   8   9
ENDBRANCH   6   7
ENDBRANCH   5   6
ENDBRANCH   3   5
ENDBRANCH   1   3
TORSDOF 15
ENDMDL
MODEL 16
REMARK VINA RESULT:      -4.7     21.819     24.106
REMARK  15 active torsions:
REMARK  status: ('A' for Active; 'I' for Inactive)
REMARK    1  A    between atoms: O_1  and  C_23 
REMARK    2  A    between atoms: C_3  and  C_7 
REMARK    3  A    between atoms: C_3  and  C_8 
REMARK    4  A    between atoms: C_4  and  C_10 
REMARK    5  A    between atoms: C_4  and  C_11 
REMARK    6  A    between atoms: C_5  and  C_12 
REMARK    7  A    between atoms: C_5  and  C_13 
REMARK    8  A    between atoms: C_6  and  C_15 
REMARK    9  A    between atoms: C_6  and  C_16 
REMARK   10  A    between atoms: C_7  and  C_23 
REMARK   11  A    between atoms: C_9  and  C_17 
REMARK   12  A    between atoms: C_9  and  C_18 
REMARK   13  A    between atoms: C_14  and  C_19 
REMARK   14  A    between atoms: C_14  and  C_20 
REMARK   15  A    between atoms: C_21  and  C_22 
ROOT
HETATM    1  O   UNL     1      27.703 -14.044 -15.438  1.00  0.00    -0.776 OA
HETATM    2  H   UNL     1      28.290 -13.342 -15.751  1.00  0.00     0.167 HD
ENDROOT
BRANCH   1   3
HETATM    3  C   UNL     1      27.267 -15.019 -16.264  1.00  0.00     0.139 C 
HETATM    4  O   UNL     1      27.114 -14.789 -17.455  1.00  0.00    -0.650 OA
BRANCH   3   5
HETATM    5  C   UNL     1      26.975 -16.386 -15.715  1.00  0.00     0.113 C 
BRANCH   5   6
HETATM    6  C   UNL     1      26.500 -16.302 -14.260  1.00  0.00     0.037 C 
BRANCH   6   7
HETATM    7  C   UNL     1      27.573 -16.798 -13.321  1.00  0.00    -0.030 C 
HETATM    8  C   UNL     1      27.912 -16.270 -12.125  1.00  0.00    -0.027 C 
BRANCH   8   9
HETATM    9  C   UNL     1      27.303 -15.063 -11.444  1.00  0.00     0.053 C 
BRANCH   9  10
HETATM   10  C   UNL     1      27.835 -13.785 -12.042  1.00  0.00    -0.027 C 
HETATM   11  C   UNL     1      28.692 -12.936 -11.447  1.00  0.00    -0.027 C 
BRANCH  11  12
HETATM   12  C   UNL     1      29.324 -13.138 -10.095  1.00  0.00     0.053 C 
BRANCH  12  13
HETATM   13  C   UNL     1      28.482 -12.514  -9.009  1.00  0.00    -0.027 C 
HETATM   14  C   UNL     1      27.767 -13.166  -8.073  1.00  0.00    -0.027 C 
BRANCH  14  15
HETATM   15  C   UNL     1      27.621 -14.659  -7.949  1.00  0.00     0.053 C 
BRANCH  15  16
HETATM   16  C   UNL     1      28.480 -15.132  -6.797  1.00  0.00    -0.027 C 
HETATM   17  C   UNL     1      29.782 -15.480  -6.823  1.00  0.00    -0.027 C 
BRANCH  17  18
HETATM   18  C   UNL     1      30.706 -15.460  -8.012  1.00  0.00     0.053 C 
BRANCH  18  19
HETATM   19  C   UNL     1      30.305 -16.516  -9.016  1.00  0.00    -0.027 C 
HETATM   20  C   UNL     1      30.739 -16.649 -10.285  1.00  0.00    -0.027 C 
BRANCH  20  21
HETATM   21  C   UNL     1      31.773 -15.804 -10.987  1.00  0.00     0.053 C 
BRANCH  21  22
HETATM   22  C   UNL     1      32.523 -16.615 -12.017  1.00  0.00    -0.027 C 
HETATM   23  C   UNL     1      32.258 -16.705 -13.335  1.00  0.00    -0.031 C 
BRANCH  23  24
HETATM   24  C   UNL     1      31.134 -16.025 -14.072  1.00  0.00     0.022 C 
HETATM   25  C   UNL     1      30.714 -16.786 -15.324  1.00  0.00     0.009 C 
ENDBRANCH  23  24
ENDBRANCH  21  22
ENDBRANCH  20  21
ENDBRANCH  18  19
ENDBRANCH  17  18
ENDBRANCH  15  16
ENDBRANCH  14  15
ENDBRANCH  12  13
ENDBRANCH  11  12
ENDBRANCH   9  10
ENDBRANCH   8   9
ENDBRANCH   6   7
ENDBRANCH   5   6
ENDBRANCH   3   5
ENDBRANCH   1   3
TORSDOF 15
ENDMDL
MODEL 17
REMARK VINA RESULT:      -4.7     17.575     20.809
REMARK  15 active torsions:
REMARK  status: ('A' for Active; 'I' for Inactive)
REMARK    1  A    between atoms: O_1  and  C_23 
REMARK    2  A    between atoms: C_3  and  C_7 
REMARK    3  A    between atoms: C_3  and  C_8 
REMARK    4  A    between atoms: C_4  and  C_10 
REMARK    5  A    between atoms: C_4  and  C_11 
REMARK    6  A    between atoms: C_5  and  C_12 
REMARK    7  A    between atoms: C_5  and  C_13 
REMARK    8  A    between atoms: C_6  and  C_15 
REMARK    9  A    between atoms: C_6  and  C_16 
REMARK   10  A    between atoms: C_7  and  C_23 
REMARK   11  A    between atoms: C_9  and  C_17 
REMARK   12  A    between atoms: C_9  and  C_18 
REMARK   13  A    between atoms: C_14  and  C_19 
REMARK   14  A    between atoms: C_14  and  C_20 
REMARK   15  A    between atoms: C_21  and  C_22 
ROOT
HETATM    1  O   UNL     1      35.172  -8.589 -12.404  1.00  0.00    -0.776 OA
HETATM    2  H   UNL     1      35.925  -8.259 -12.914  1.00  0.00     0.167 HD
ENDROOT
BRANCH   1   3
HETATM    3  C   UNL     1      34.447  -9.648 -12.824  1.00  0.00     0.139 C 
HETATM    4  O   UNL     1      34.693 -10.170 -13.902  1.00  0.00    -0.650 OA
BRANCH   3   5
HETATM    5  C   UNL     1      33.339 -10.183 -11.962  1.00  0.00     0.113 C 
BRANCH   5   6
HETATM    6  C   UNL     1      32.226 -10.795 -12.819  1.00  0.00     0.037 C 
BRANCH   6   7
HETATM    7  C   UNL     1      31.026 -11.138 -11.967  1.00  0.00    -0.030 C 
HETATM    8  C   UNL     1      30.058 -12.035 -12.251  1.00  0.00    -0.027 C 
BRANCH   8   9
HETATM    9  C   UNL     1      29.943 -12.908 -13.483  1.00  0.00     0.053 C 
BRANCH   9  10
HETATM   10  C   UNL     1      28.903 -12.365 -14.430  1.00  0.00    -0.027 C 
HETATM   11  C   UNL     1      28.154 -13.094 -15.276  1.00  0.00    -0.027 C 
BRANCH  11  12
HETATM   12  C   UNL     1      28.177 -14.596 -15.391  1.00  0.00     0.053 C 
BRANCH  12  13
HETATM   13  C   UNL     1      29.136 -15.039 -16.468  1.00  0.00    -0.027 C 
HETATM   14  C   UNL     1      30.144 -15.921 -16.332  1.00  0.00    -0.027 C 
BRANCH  14  15
HETATM   15  C   UNL     1      30.553 -16.612 -15.059  1.00  0.00     0.053 C 
BRANCH  15  16
HETATM   16  C   UNL     1      32.045 -16.857 -15.102  1.00  0.00    -0.027 C 
HETATM   17  C   UNL     1      33.025 -16.102 -14.566  1.00  0.00    -0.027 C 
BRANCH  17  18
HETATM   18  C   UNL     1      32.864 -14.832 -13.772  1.00  0.00     0.053 C 
BRANCH  18  19
HETATM   19  C   UNL     1      33.808 -13.765 -14.275  1.00  0.00    -0.027 C 
HETATM   20  C   UNL     1      33.758 -13.116 -15.456  1.00  0.00    -0.027 C 
BRANCH  20  21
HETATM   21  C   UNL     1      32.712 -13.264 -16.533  1.00  0.00     0.053 C 
BRANCH  21  22
HETATM   22  C   UNL     1      31.739 -12.109 -16.501  1.00  0.00    -0.027 C 
HETATM   23  C   UNL     1      31.849 -10.932 -17.148  1.00  0.00    -0.031 C 
BRANCH  23  24
HETATM   24  C   UNL     1      32.985 -10.501 -18.039  1.00  0.00     0.022 C 
HETATM   25  C   UNL     1      34.007  -9.642 -17.306  1.00  0.00     0.009 C 
ENDBRANCH  23  24
ENDBRANCH  21  22
ENDBRANCH  20  21
ENDBRANCH  18  19
ENDBRANCH  17  18
ENDBRANCH  15  16
ENDBRANCH  14  15
ENDBRANCH  12  13
ENDBRANCH  11  12
ENDBRANCH   9  10
ENDBRANCH   8   9
ENDBRANCH   6   7
ENDBRANCH   5   6
ENDBRANCH   3   5
ENDBRANCH   1   3
TORSDOF 15
ENDMDL
MODEL 18
REMARK VINA RESULT:      -4.6     19.600     22.840
REMARK  15 active torsions:
REMARK  status: ('A' for Active; 'I' for Inactive)
REMARK    1  A    between atoms: O_1  and  C_23 
REMARK    2  A    between atoms: C_3  and  C_7 
REMARK    3  A    between atoms: C_3  and  C_8 
REMARK    4  A    between atoms: C_4  and  C_10 
REMARK    5  A    between atoms: C_4  and  C_11 
REMARK    6  A    between atoms: C_5  and  C_12 
REMARK    7  A    between atoms: C_5  and  C_13 
REMARK    8  A    between atoms: C_6  and  C_15 
REMARK    9  A    between atoms: C_6  and  C_16 
REMARK   10  A    between atoms: C_7  and  C_23 
REMARK   11  A    between atoms: C_9  and  C_17 
REMARK   12  A    between atoms: C_9  and  C_18 
REMARK   13  A    between atoms: C_14  and  C_19 
REMARK   14  A    between atoms: C_14  and  C_20 
REMARK   15  A    between atoms: C_21  and  C_22 
ROOT
HETATM    1  O   UNL     1      35.239  -9.724 -13.899  1.00  0.00    -0.776 OA
HETATM    2  H   UNL     1      35.075  -9.535 -12.965  1.00  0.00     0.167 HD
ENDROOT
BRANCH   1   3
HETATM    3  C   UNL     1      34.350 -10.417 -14.643  1.00  0.00     0.139 C 
HETATM    4  O   UNL     1      34.207 -10.155 -15.829  1.00  0.00    -0.650 OA
BRANCH   3   5
HETATM    5  C   UNL     1      33.542 -11.514 -14.009  1.00  0.00     0.113 C 
BRANCH   5   6
HETATM    6  C   UNL     1      33.194 -11.168 -12.557  1.00  0.00     0.037 C 
BRANCH   6   7
HETATM    7  C   UNL     1      31.757 -10.716 -12.447  1.00  0.00    -0.030 C 
HETATM    8  C   UNL     1      30.653 -11.481 -12.585  1.00  0.00    -0.027 C 
BRANCH   8   9
HETATM    9  C   UNL     1      30.590 -12.964 -12.883  1.00  0.00     0.053 C 
BRANCH   9  10
HETATM   10  C   UNL     1      29.826 -13.224 -14.156  1.00  0.00    -0.027 C 
HETATM   11  C   UNL     1      28.530 -13.576 -14.237  1.00  0.00    -0.027 C 
BRANCH  11  12
HETATM   12  C   UNL     1      27.589 -13.718 -13.070  1.00  0.00     0.053 C 
BRANCH  12  13
HETATM   13  C   UNL     1      27.168 -15.155 -12.890  1.00  0.00    -0.027 C 
HETATM   14  C   UNL     1      27.567 -15.992 -11.913  1.00  0.00    -0.027 C 
BRANCH  14  15
HETATM   15  C   UNL     1      28.557 -15.676 -10.823  1.00  0.00     0.053 C 
BRANCH  15  16
HETATM   16  C   UNL     1      29.872 -16.341 -11.162  1.00  0.00    -0.027 C 
HETATM   17  C   UNL     1      31.053 -16.217 -10.522  1.00  0.00    -0.027 C 
BRANCH  17  18
HETATM   18  C   UNL     1      31.339 -15.393  -9.294  1.00  0.00     0.053 C 
BRANCH  18  19
HETATM   19  C   UNL     1      32.046 -14.110  -9.664  1.00  0.00    -0.027 C 
HETATM   20  C   UNL     1      31.684 -12.851  -9.344  1.00  0.00    -0.027 C 
BRANCH  20  21
HETATM   21  C   UNL     1      30.513 -12.430  -8.491  1.00  0.00     0.053 C 
BRANCH  21  22
HETATM   22  C   UNL     1      29.245 -12.368  -9.310  1.00  0.00    -0.027 C 
HETATM   23  C   UNL     1      27.999 -12.686  -8.908  1.00  0.00    -0.031 C 
BRANCH  23  24
HETATM   24  C   UNL     1      27.596 -13.196  -7.549  1.00  0.00     0.022 C 
HETATM   25  C   UNL     1      27.682 -14.713  -7.447  1.00  0.00     0.009 C 
ENDBRANCH  23  24
ENDBRANCH  21  22
ENDBRANCH  20  21
ENDBRANCH  18  19
ENDBRANCH  17  18
ENDBRANCH  15  16
ENDBRANCH  14  15
ENDBRANCH  12  13
ENDBRANCH  11  12
ENDBRANCH   9  10
ENDBRANCH   8   9
ENDBRANCH   6   7
ENDBRANCH   5   6
ENDBRANCH   3   5
ENDBRANCH   1   3
TORSDOF 15
ENDMDL
MODEL 19
REMARK VINA RESULT:      -4.6     19.598     23.180
REMARK  15 active torsions:
REMARK  status: ('A' for Active; 'I' for Inactive)
REMARK    1  A    between atoms: O_1  and  C_23 
REMARK    2  A    between atoms: C_3  and  C_7 
REMARK    3  A    between atoms: C_3  and  C_8 
REMARK    4  A    between atoms: C_4  and  C_10 
REMARK    5  A    between atoms: C_4  and  C_11 
REMARK    6  A    between atoms: C_5  and  C_12 
REMARK    7  A    between atoms: C_5  and  C_13 
REMARK    8  A    between atoms: C_6  and  C_15 
REMARK    9  A    between atoms: C_6  and  C_16 
REMARK   10  A    between atoms: C_7  and  C_23 
REMARK   11  A    between atoms: C_9  and  C_17 
REMARK   12  A    between atoms: C_9  and  C_18 
REMARK   13  A    between atoms: C_14  and  C_19 
REMARK   14  A    between atoms: C_14  and  C_20 
REMARK   15  A    between atoms: C_21  and  C_22 
ROOT
HETATM    1  O   UNL     1      26.844 -17.234 -17.042  1.00  0.00    -0.776 OA
HETATM    2  H   UNL     1      27.295 -18.084 -17.141  1.00  0.00     0.167 HD
ENDROOT
BRANCH   1   3
HETATM    3  C   UNL     1      26.892 -16.295 -18.010  1.00  0.00     0.139 C 
HETATM    4  O   UNL     1      26.910 -16.628 -19.187  1.00  0.00    -0.650 OA
BRANCH   3   5
HETATM    5  C   UNL     1      26.919 -14.840 -17.637  1.00  0.00     0.113 C 
BRANCH   5   6
HETATM    6  C   UNL     1      28.356 -14.363 -17.396  1.00  0.00     0.037 C 
BRANCH   6   7
HETATM    7  C   UNL     1      28.478 -12.882 -17.663  1.00  0.00    -0.030 C 
HETATM    8  C   UNL     1      28.901 -12.295 -18.803  1.00  0.00    -0.027 C 
BRANCH   8   9
HETATM    9  C   UNL     1      29.353 -12.975 -20.078  1.00  0.00     0.053 C 
BRANCH   9  10
HETATM   10  C   UNL     1      30.706 -13.613 -19.895  1.00  0.00    -0.027 C 
HETATM   11  C   UNL     1      31.880 -12.960 -19.831  1.00  0.00    -0.027 C 
BRANCH  11  12
HETATM   12  C   UNL     1      32.052 -11.464 -19.872  1.00  0.00     0.053 C 
BRANCH  12  13
HETATM   13  C   UNL     1      33.128 -11.019 -18.913  1.00  0.00    -0.027 C 
HETATM   14  C   UNL     1      32.994 -10.831 -17.587  1.00  0.00    -0.027 C 
BRANCH  14  15
HETATM   15  C   UNL     1      31.722 -10.980 -16.794  1.00  0.00     0.053 C 
BRANCH  15  16
HETATM   16  C   UNL     1      31.691 -12.366 -16.191  1.00  0.00    -0.027 C 
HETATM   17  C   UNL     1      31.168 -12.743 -15.006  1.00  0.00    -0.027 C 
BRANCH  17  18
HETATM   18  C   UNL     1      30.467 -11.867 -14.002  1.00  0.00     0.053 C 
BRANCH  18  19
HETATM   19  C   UNL     1      28.982 -11.820 -14.281  1.00  0.00    -0.027 C 
HETATM   20  C   UNL     1      28.045 -12.706 -13.887  1.00  0.00    -0.027 C 
BRANCH  20  21
HETATM   21  C   UNL     1      28.252 -13.927 -13.025  1.00  0.00     0.053 C 
BRANCH  21  22
HETATM   22  C   UNL     1      27.765 -15.172 -13.730  1.00  0.00    -0.027 C 
HETATM   23  C   UNL     1      28.516 -16.169 -14.236  1.00  0.00    -0.031 C 
BRANCH  23  24
HETATM   24  C   UNL     1      30.020 -16.252 -14.226  1.00  0.00     0.022 C 
HETATM   25  C   UNL     1      30.590 -16.684 -15.571  1.00  0.00     0.009 C 
ENDBRANCH  23  24
ENDBRANCH  21  22
ENDBRANCH  20  21
ENDBRANCH  18  19
ENDBRANCH  17  18
ENDBRANCH  15  16
ENDBRANCH  14  15
ENDBRANCH  12  13
ENDBRANCH  11  12
ENDBRANCH   9  10
ENDBRANCH   8   9
ENDBRANCH   6   7
ENDBRANCH   5   6
ENDBRANCH   3   5
ENDBRANCH   1   3
TORSDOF 15
ENDMDL
MODEL 20
REMARK VINA RESULT:      -4.6     20.296     23.310
REMARK  15 active torsions:
REMARK  status: ('A' for Active; 'I' for Inactive)
REMARK    1  A    between atoms: O_1  and  C_23 
REMARK    2  A    between atoms: C_3  and  C_7 
REMARK    3  A    between atoms: C_3  and  C_8 
REMARK    4  A    between atoms: C_4  and  C_10 
REMARK    5  A    between atoms: C_4  and  C_11 
REMARK    6  A    between atoms: C_5  and  C_12 
REMARK    7  A    between atoms: C_5  and  C_13 
REMARK    8  A    between atoms: C_6  and  C_15 
REMARK    9  A    between atoms: C_6  and  C_16 
REMARK   10  A    between atoms: C_7  and  C_23 
REMARK   11  A    between atoms: C_9  and  C_17 
REMARK   12  A    between atoms: C_9  and  C_18 
REMARK   13  A    between atoms: C_14  and  C_19 
REMARK   14  A    between atoms: C_14  and  C_20 
REMARK   15  A    between atoms: C_21  and  C_22 
ROOT
HETATM    1  O   UNL     1      29.138 -11.855  -9.931  1.00  0.00    -0.776 OA
HETATM    2  H   UNL     1      29.937 -12.005 -10.454  1.00  0.00     0.167 HD
ENDROOT
BRANCH   1   3
HETATM    3  C   UNL     1      28.301 -12.867  -9.617  1.00  0.00     0.139 C 
HETATM    4  O   UNL     1      27.295 -12.648  -8.956  1.00  0.00    -0.650 OA
BRANCH   3   5
HETATM    5  C   UNL     1      28.607 -14.261 -10.085  1.00  0.00     0.113 C 
BRANCH   5   6
HETATM    6  C   UNL     1      27.839 -14.588 -11.371  1.00  0.00     0.037 C 
BRANCH   6   7
HETATM    7  C   UNL     1      28.237 -15.945 -11.899  1.00  0.00    -0.030 C 
HETATM    8  C   UNL     1      27.716 -16.587 -12.966  1.00  0.00    -0.027 C 
BRANCH   8   9
HETATM    9  C   UNL     1      26.613 -16.103 -13.884  1.00  0.00     0.053 C 
BRANCH   9  10
HETATM   10  C   UNL     1      26.988 -16.312 -15.329  1.00  0.00    -0.027 C 
HETATM   11  C   UNL     1      27.294 -15.341 -16.209  1.00  0.00    -0.027 C 
BRANCH  11  12
HETATM   12  C   UNL     1      27.375 -13.870 -15.895  1.00  0.00     0.053 C 
BRANCH  12  13
HETATM   13  C   UNL     1      28.769 -13.345 -16.131  1.00  0.00    -0.027 C 
HETATM   14  C   UNL     1      29.505 -12.609 -15.277  1.00  0.00    -0.027 C 
BRANCH  14  15
HETATM   15  C   UNL     1      29.065 -12.116 -13.924  1.00  0.00     0.053 C 
BRANCH  15  16
HETATM   16  C   UNL     1      30.291 -11.705 -13.140  1.00  0.00    -0.027 C 
HETATM   17  C   UNL     1      31.241 -12.502 -12.609  1.00  0.00    -0.027 C 
BRANCH  17  18
HETATM   18  C   UNL     1      31.317 -14.004 -12.689  1.00  0.00     0.053 C 
BRANCH  18  19
HETATM   19  C   UNL     1      32.751 -14.470 -12.608  1.00  0.00    -0.027 C 
HETATM   20  C   UNL     1      33.646 -14.552 -13.614  1.00  0.00    -0.027 C 
BRANCH  20  21
HETATM   21  C   UNL     1      33.439 -14.142 -15.051  1.00  0.00     0.053 C 
BRANCH  21  22
HETATM   22  C   UNL     1      33.602 -15.326 -15.977  1.00  0.00    -0.027 C 
HETATM   23  C   UNL     1      32.624 -16.088 -16.504  1.00  0.00    -0.031 C 
BRANCH  23  24
HETATM   24  C   UNL     1      31.143 -15.938 -16.269  1.00  0.00     0.022 C 
HETATM   25  C   UNL     1      30.669 -16.695 -15.036  1.00  0.00     0.009 C 
ENDBRANCH  23  24
ENDBRANCH  21  22
ENDBRANCH  20  21
ENDBRANCH  18  19
ENDBRANCH  17  18
ENDBRANCH  15  16
ENDBRANCH  14  15
ENDBRANCH  12  13
ENDBRANCH  11  12
ENDBRANCH   9  10
ENDBRANCH   8   9
ENDBRANCH   6   7
ENDBRANCH   5   6
ENDBRANCH   3   5
ENDBRANCH   1   3
TORSDOF 15
ENDMDL
