MODEL 1
REMARK VINA RESULT:      -4.7      0.000      0.000
REMARK  15 active torsions:
REMARK  status: ('A' for Active; 'I' for Inactive)
REMARK    1  A    between atoms: O_1  and  C_18 
REMARK    2  A    between atoms: C_3  and  C_4 
REMARK    3  A    between atoms: C_3  and  C_5 
REMARK    4  A    between atoms: C_4  and  C_6 
REMARK    5  A    between atoms: C_5  and  C_7 
REMARK    6  A    between atoms: C_6  and  C_8 
REMARK    7  A    between atoms: C_7  and  C_9 
REMARK    8  A    between atoms: C_8  and  C_10 
REMARK    9  A    between atoms: C_9  and  C_11 
REMARK   10  A    between atoms: C_10  and  C_12 
REMARK   11  A    between atoms: C_11  and  C_13 
REMARK   12  A    between atoms: C_12  and  C_14 
REMARK   13  A    between atoms: C_13  and  C_15 
REMARK   14  A    between atoms: C_14  and  C_16 
REMARK   15  A    between atoms: C_16  and  C_18 
ROOT
HETATM    1  O   UNL     1      52.830  -9.852 -18.624  1.00  0.00    -0.776 OA
HETATM    2  H   UNL     1      51.925 -10.189 -18.684  1.00  0.00     0.167 HD
ENDROOT
BRANCH   1   3
HETATM    3  C   UNL     1      53.125  -8.568 -18.920  1.00  0.00     0.139 C 
HETATM    4  O   UNL     1      52.762  -8.092 -19.986  1.00  0.00    -0.650 OA
BRANCH   3   5
HETATM    5  C   UNL     1      53.898  -7.747 -17.920  1.00  0.00     0.110 C 
BRANCH   5   6
HETATM    6  C   UNL     1      53.266  -7.751 -16.520  1.00  0.00     0.010 C 
BRANCH   6   7
HETATM    7  C   UNL     1      54.316  -7.458 -15.442  1.00  0.00     0.001 C 
BRANCH   7   8
HETATM    8  C   UNL     1      53.788  -7.814 -14.047  1.00  0.00     0.000 C 
BRANCH   8   9
HETATM    9  C   UNL     1      52.337  -8.306 -14.117  1.00  0.00     0.000 C 
BRANCH   9  10
HETATM   10  C   UNL     1      51.366  -7.225 -13.627  1.00  0.00     0.000 C 
BRANCH  10  11
HETATM   11  C   UNL     1      49.927  -7.754 -13.591  1.00  0.00     0.000 C 
BRANCH  11  12
HETATM   12  C   UNL     1      49.138  -7.290 -14.820  1.00  0.00     0.000 C 
BRANCH  12  13
HETATM   13  C   UNL     1      49.388  -5.805 -15.107  1.00  0.00     0.000 C 
BRANCH  13  14
HETATM   14  C   UNL     1      50.248  -5.625 -16.364  1.00  0.00     0.000 C 
BRANCH  14  15
HETATM   15  C   UNL     1      49.415  -5.832 -17.635  1.00  0.00     0.000 C 
BRANCH  15  16
HETATM   16  C   UNL     1      49.914  -7.045 -18.428  1.00  0.00     0.000 C 
BRANCH  16  17
HETATM   17  C   UNL     1      48.745  -7.796 -19.077  1.00  0.00    -0.000 C 
BRANCH  17  18
HETATM   18  C   UNL     1      47.400  -7.216 -18.626  1.00  0.00    -0.005 C 
HETATM   19  C   UNL     1      46.618  -6.653 -19.809  1.00  0.00     0.005 C 
ENDBRANCH  17  18
ENDBRANCH  16  17
ENDBRANCH  15  16
ENDBRANCH  14  15
ENDBRANCH  13  14
ENDBRANCH  12  13
ENDBRANCH  11  12
ENDBRANCH  10  11
ENDBRANCH   9  10
ENDBRANCH   8   9
ENDBRANCH   7   8
ENDBRANCH   6   7
ENDBRANCH   5   6
ENDBRANCH   3   5
ENDBRANCH   1   3
TORSDOF 15
ENDMDL
MODEL 2
REMARK VINA RESULT:      -4.5      3.907      6.755
REMARK  15 active torsions:
REMARK  status: ('A' for Active; 'I' for Inactive)
REMARK    1  A    between atoms: O_1  and  C_18 
REMARK    2  A    between atoms: C_3  and  C_4 
REMARK    3  A    between atoms: C_3  and  C_5 
REMARK    4  A    between atoms: C_4  and  C_6 
REMARK    5  A    between atoms: C_5  and  C_7 
REMARK    6  A    between atoms: C_6  and  C_8 
REMARK    7  A    between atoms: C_7  and  C_9 
REMARK    8  A    between atoms: C_8  and  C_10 
REMARK    9  A    between atoms: C_9  and  C_11 
REMARK   10  A    between atoms: C_10  and  C_12 
REMARK   11  A    between atoms: C_11  and  C_13 
REMARK   12  A    between atoms: C_12  and  C_14 
REMARK   13  A    between atoms: C_13  and  C_15 
REMARK   14  A    between atoms: C_14  and  C_16 
REMARK   15  A    between atoms: C_16  and  C_18 
ROOT
HETATM    1  O   UNL     1      54.689  -6.942 -16.986  1.00  0.00    -0.776 OA
HETATM    2  H   UNL     1      54.952  -6.588 -16.125  1.00  0.00     0.167 HD
ENDROOT
BRANCH   1   3
HETATM    3  C   UNL     1      53.657  -7.803 -17.108  1.00  0.00     0.139 C 
HETATM    4  O   UNL     1      52.950  -8.044 -16.141  1.00  0.00    -0.650 OA
BRANCH   3   5
HETATM    5  C   UNL     1      53.399  -8.449 -18.445  1.00  0.00     0.110 C 
BRANCH   5   6
HETATM    6  C   UNL     1      54.368  -7.975 -19.540  1.00  0.00     0.010 C 
BRANCH   6   7
HETATM    7  C   UNL     1      53.609  -7.309 -20.693  1.00  0.00     0.001 C 
BRANCH   7   8
HETATM    8  C   UNL     1      53.325  -8.313 -21.818  1.00  0.00     0.000 C 
BRANCH   8   9
HETATM    9  C   UNL     1      53.717  -7.736 -23.183  1.00  0.00     0.000 C 
BRANCH   9  10
HETATM   10  C   UNL     1      53.456  -8.748 -24.304  1.00  0.00     0.000 C 
BRANCH  10  11
HETATM   11  C   UNL     1      52.511  -8.166 -25.362  1.00  0.00     0.000 C 
BRANCH  11  12
HETATM   12  C   UNL     1      51.062  -8.154 -24.862  1.00  0.00     0.000 C 
BRANCH  12  13
HETATM   13  C   UNL     1      50.336  -6.881 -25.309  1.00  0.00     0.000 C 
BRANCH  13  14
HETATM   14  C   UNL     1      49.729  -6.143 -24.109  1.00  0.00     0.000 C 
BRANCH  14  15
HETATM   15  C   UNL     1      49.906  -6.953 -22.818  1.00  0.00     0.000 C 
BRANCH  15  16
HETATM   16  C   UNL     1      50.311  -6.045 -21.651  1.00  0.00     0.000 C 
BRANCH  16  17
HETATM   17  C   UNL     1      49.184  -5.947 -20.615  1.00  0.00    -0.000 C 
BRANCH  17  18
HETATM   18  C   UNL     1      49.237  -7.123 -19.632  1.00  0.00    -0.005 C 
HETATM   19  C   UNL     1      50.216  -6.846 -18.495  1.00  0.00     0.005 C 
ENDBRANCH  17  18
ENDBRANCH  16  17
ENDBRANCH  15  16
ENDBRANCH  14  15
ENDBRANCH  13  14
ENDBRANCH  12  13
ENDBRANCH  11  12
ENDBRANCH  10  11
ENDBRANCH   9  10
ENDBRANCH   8   9
ENDBRANCH   7   8
ENDBRANCH   6   7
ENDBRANCH   5   6
ENDBRANCH   3   5
ENDBRANCH   1   3
TORSDOF 15
ENDMDL
MODEL 3
REMARK VINA RESULT:      -4.4      4.042      6.656
REMARK  15 active torsions:
REMARK  status: ('A' for Active; 'I' for Inactive)
REMARK    1  A    between atoms: O_1  and  C_18 
REMARK    2  A    between atoms: C_3  and  C_4 
REMARK    3  A    between atoms: C_3  and  C_5 
REMARK    4  A    between atoms: C_4  and  C_6 
REMARK    5  A    between atoms: C_5  and  C_7 
REMARK    6  A    between atoms: C_6  and  C_8 
REMARK    7  A    between atoms: C_7  and  C_9 
REMARK    8  A    between atoms: C_8  and  C_10 
REMARK    9  A    between atoms: C_9  and  C_11 
REMARK   10  A    between atoms: C_10  and  C_12 
REMARK   11  A    between atoms: C_11  and  C_13 
REMARK   12  A    between atoms: C_12  and  C_14 
REMARK   13  A    between atoms: C_13  and  C_15 
REMARK   14  A    between atoms: C_14  and  C_16 
REMARK   15  A    between atoms: C_16  and  C_18 
ROOT
HETATM    1  O   UNL     1      54.585  -7.632 -14.308  1.00  0.00    -0.776 OA
HETATM    2  H   UNL     1      53.908  -7.598 -13.618  1.00  0.00     0.167 HD
ENDROOT
BRANCH   1   3
HETATM    3  C   UNL     1      54.292  -7.348 -15.595  1.00  0.00     0.139 C 
HETATM    4  O   UNL     1      54.682  -6.300 -16.089  1.00  0.00    -0.650 OA
BRANCH   3   5
HETATM    5  C   UNL     1      53.488  -8.339 -16.397  1.00  0.00     0.110 C 
BRANCH   5   6
HETATM    6  C   UNL     1      52.999  -7.772 -17.739  1.00  0.00     0.010 C 
BRANCH   6   7
HETATM    7  C   UNL     1      53.585  -8.561 -18.915  1.00  0.00     0.001 C 
BRANCH   7   8
HETATM    8  C   UNL     1      54.564  -7.699 -19.722  1.00  0.00     0.000 C 
BRANCH   8   9
HETATM    9  C   UNL     1      53.880  -7.095 -20.954  1.00  0.00     0.000 C 
BRANCH   9  10
HETATM   10  C   UNL     1      53.373  -8.193 -21.895  1.00  0.00     0.000 C 
BRANCH  10  11
HETATM   11  C   UNL     1      53.594  -7.806 -23.362  1.00  0.00     0.000 C 
BRANCH  11  12
HETATM   12  C   UNL     1      53.651  -9.049 -24.258  1.00  0.00     0.000 C 
BRANCH  12  13
HETATM   13  C   UNL     1      52.244  -9.505 -24.658  1.00  0.00     0.000 C 
BRANCH  13  14
HETATM   14  C   UNL     1      51.364  -8.307 -25.035  1.00  0.00     0.000 C 
BRANCH  14  15
HETATM   15  C   UNL     1      50.090  -8.268 -24.182  1.00  0.00     0.000 C 
BRANCH  15  16
HETATM   16  C   UNL     1      49.293  -6.985 -24.441  1.00  0.00     0.000 C 
BRANCH  16  17
HETATM   17  C   UNL     1      49.611  -5.918 -23.386  1.00  0.00    -0.000 C 
BRANCH  17  18
HETATM   18  C   UNL     1      50.157  -6.557 -22.105  1.00  0.00    -0.005 C 
HETATM   19  C   UNL     1      49.895  -5.670 -20.891  1.00  0.00     0.005 C 
ENDBRANCH  17  18
ENDBRANCH  16  17
ENDBRANCH  15  16
ENDBRANCH  14  15
ENDBRANCH  13  14
ENDBRANCH  12  13
ENDBRANCH  11  12
ENDBRANCH  10  11
ENDBRANCH   9  10
ENDBRANCH   8   9
ENDBRANCH   7   8
ENDBRANCH   6   7
ENDBRANCH   5   6
ENDBRANCH   3   5
ENDBRANCH   1   3
TORSDOF 15
ENDMDL
MODEL 4
REMARK VINA RESULT:      -4.3      5.914      8.975
REMARK  15 active torsions:
REMARK  status: ('A' for Active; 'I' for Inactive)
REMARK    1  A    between atoms: O_1  and  C_18 
REMARK    2  A    between atoms: C_3  and  C_4 
REMARK    3  A    between atoms: C_3  and  C_5 
REMARK    4  A    between atoms: C_4  and  C_6 
REMARK    5  A    between atoms: C_5  and  C_7 
REMARK    6  A    between atoms: C_6  and  C_8 
REMARK    7  A    between atoms: C_7  and  C_9 
REMARK    8  A    between atoms: C_8  and  C_10 
REMARK    9  A    between atoms: C_9  and  C_11 
REMARK   10  A    between atoms: C_10  and  C_12 
REMARK   11  A    between atoms: C_11  and  C_13 
REMARK   12  A    between atoms: C_12  and  C_14 
REMARK   13  A    between atoms: C_13  and  C_15 
REMARK   14  A    between atoms: C_14  and  C_16 
REMARK   15  A    between atoms: C_16  and  C_18 
ROOT
HETATM    1  O   UNL     1      48.088  -8.820 -12.491  1.00  0.00    -0.776 OA
HETATM    2  H   UNL     1      48.762  -9.157 -11.885  1.00  0.00     0.167 HD
ENDROOT
BRANCH   1   3
HETATM    3  C   UNL     1      48.418  -8.068 -13.563  1.00  0.00     0.139 C 
HETATM    4  O   UNL     1      47.660  -8.011 -14.521  1.00  0.00    -0.650 OA
BRANCH   3   5
HETATM    5  C   UNL     1      49.721  -7.312 -13.552  1.00  0.00     0.110 C 
BRANCH   5   6
HETATM    6  C   UNL     1      50.091  -6.768 -12.163  1.00  0.00     0.010 C 
BRANCH   6   7
HETATM    7  C   UNL     1      49.880  -5.252 -12.093  1.00  0.00     0.001 C 
BRANCH   7   8
HETATM    8  C   UNL     1      48.755  -4.898 -11.112  1.00  0.00     0.000 C 
BRANCH   8   9
HETATM    9  C   UNL     1      48.470  -6.063 -10.157  1.00  0.00     0.000 C 
BRANCH   9  10
HETATM   10  C   UNL     1      46.964  -6.326 -10.045  1.00  0.00     0.000 C 
BRANCH  10  11
HETATM   11  C   UNL     1      46.663  -7.337  -8.932  1.00  0.00     0.000 C 
BRANCH  11  12
HETATM   12  C   UNL     1      47.933  -8.085  -8.509  1.00  0.00     0.000 C 
BRANCH  12  13
HETATM   13  C   UNL     1      48.108  -8.056  -6.987  1.00  0.00     0.000 C 
BRANCH  13  14
HETATM   14  C   UNL     1      47.276  -6.931  -6.359  1.00  0.00     0.000 C 
BRANCH  14  15
HETATM   15  C   UNL     1      48.175  -5.913  -5.646  1.00  0.00     0.000 C 
BRANCH  15  16
HETATM   16  C   UNL     1      48.695  -4.857  -6.627  1.00  0.00     0.000 C 
BRANCH  16  17
HETATM   17  C   UNL     1      50.156  -5.131  -7.007  1.00  0.00    -0.000 C 
BRANCH  17  18
HETATM   18  C   UNL     1      50.766  -6.209  -6.104  1.00  0.00    -0.005 C 
HETATM   19  C   UNL     1      51.841  -7.002  -6.842  1.00  0.00     0.005 C 
ENDBRANCH  17  18
ENDBRANCH  16  17
ENDBRANCH  15  16
ENDBRANCH  14  15
ENDBRANCH  13  14
ENDBRANCH  12  13
ENDBRANCH  11  12
ENDBRANCH  10  11
ENDBRANCH   9  10
ENDBRANCH   8   9
ENDBRANCH   7   8
ENDBRANCH   6   7
ENDBRANCH   5   6
ENDBRANCH   3   5
ENDBRANCH   1   3
TORSDOF 15
ENDMDL
MODEL 5
REMARK VINA RESULT:      -4.3      7.116     10.662
REMARK  15 active torsions:
REMARK  status: ('A' for Active; 'I' for Inactive)
REMARK    1  A    between atoms: O_1  and  C_18 
REMARK    2  A    between atoms: C_3  and  C_4 
REMARK    3  A    between atoms: C_3  and  C_5 
REMARK    4  A    between atoms: C_4  and  C_6 
REMARK    5  A    between atoms: C_5  and  C_7 
REMARK    6  A    between atoms: C_6  and  C_8 
REMARK    7  A    between atoms: C_7  and  C_9 
REMARK    8  A    between atoms: C_8  and  C_10 
REMARK    9  A    between atoms: C_9  and  C_11 
REMARK   10  A    between atoms: C_10  and  C_12 
REMARK   11  A    between atoms: C_11  and  C_13 
REMARK   12  A    between atoms: C_12  and  C_14 
REMARK   13  A    between atoms: C_13  and  C_15 
REMARK   14  A    between atoms: C_14  and  C_16 
REMARK   15  A    between atoms: C_16  and  C_18 
ROOT
HETATM    1  O   UNL     1      45.624  -6.561  -6.279  1.00  0.00    -0.776 OA
HETATM    2  H   UNL     1      45.031  -5.967  -5.798  1.00  0.00     0.167 HD
ENDROOT
BRANCH   1   3
HETATM    3  C   UNL     1      46.771  -6.114  -6.832  1.00  0.00     0.139 C 
HETATM    4  O   UNL     1      47.074  -4.933  -6.731  1.00  0.00    -0.650 OA
BRANCH   3   5
HETATM    5  C   UNL     1      47.658  -7.088  -7.563  1.00  0.00     0.110 C 
BRANCH   5   6
HETATM    6  C   UNL     1      47.715  -6.833  -9.077  1.00  0.00     0.010 C 
BRANCH   6   7
HETATM    7  C   UNL     1      49.078  -6.266  -9.488  1.00  0.00     0.001 C 
BRANCH   7   8
HETATM    8  C   UNL     1      48.938  -5.302 -10.673  1.00  0.00     0.000 C 
BRANCH   8   9
HETATM    9  C   UNL     1      49.929  -5.653 -11.789  1.00  0.00     0.000 C 
BRANCH   9  10
HETATM   10  C   UNL     1      51.018  -6.603 -11.278  1.00  0.00     0.000 C 
BRANCH  10  11
HETATM   11  C   UNL     1      52.144  -6.754 -12.308  1.00  0.00     0.000 C 
BRANCH  11  12
HETATM   12  C   UNL     1      53.196  -7.763 -11.832  1.00  0.00     0.000 C 
BRANCH  12  13
HETATM   13  C   UNL     1      54.135  -7.131 -10.798  1.00  0.00     0.000 C 
BRANCH  13  14
HETATM   14  C   UNL     1      54.364  -8.077  -9.612  1.00  0.00     0.000 C 
BRANCH  14  15
HETATM   15  C   UNL     1      53.045  -8.390  -8.895  1.00  0.00     0.000 C 
BRANCH  15  16
HETATM   16  C   UNL     1      53.242  -8.429  -7.376  1.00  0.00     0.000 C 
BRANCH  16  17
HETATM   17  C   UNL     1      53.997  -7.187  -6.887  1.00  0.00    -0.000 C 
BRANCH  17  18
HETATM   18  C   UNL     1      54.477  -7.369  -5.442  1.00  0.00    -0.005 C 
HETATM   19  C   UNL     1      53.764  -8.537  -4.767  1.00  0.00     0.005 C 
ENDBRANCH  17  18
ENDBRANCH  16  17
ENDBRANCH  15  16
ENDBRANCH  14  15
ENDBRANCH  13  14
ENDBRANCH  12  13
ENDBRANCH  11  12
ENDBRANCH  10  11
ENDBRANCH   9  10
ENDBRANCH   8   9
ENDBRANCH   7   8
ENDBRANCH   6   7
ENDBRANCH   5   6
ENDBRANCH   3   5
ENDBRANCH   1   3
TORSDOF 15
ENDMDL
MODEL 6
REMARK VINA RESULT:      -4.3      4.202      7.198
REMARK  15 active torsions:
REMARK  status: ('A' for Active; 'I' for Inactive)
REMARK    1  A    between atoms: O_1  and  C_18 
REMARK    2  A    between atoms: C_3  and  C_4 
REMARK    3  A    between atoms: C_3  and  C_5 
REMARK    4  A    between atoms: C_4  and  C_6 
REMARK    5  A    between atoms: C_5  and  C_7 
REMARK    6  A    between atoms: C_6  and  C_8 
REMARK    7  A    between atoms: C_7  and  C_9 
REMARK    8  A    between atoms: C_8  and  C_10 
REMARK    9  A    between atoms: C_9  and  C_11 
REMARK   10  A    between atoms: C_10  and  C_12 
REMARK   11  A    between atoms: C_11  and  C_13 
REMARK   12  A    between atoms: C_12  and  C_14 
REMARK   13  A    between atoms: C_13  and  C_15 
REMARK   14  A    between atoms: C_14  and  C_16 
REMARK   15  A    between atoms: C_16  and  C_18 
ROOT
HETATM    1  O   UNL     1      49.366  -8.497  -8.999  1.00  0.00    -0.776 OA
HETATM    2  H   UNL     1      49.706  -8.559  -8.095  1.00  0.00     0.167 HD
ENDROOT
BRANCH   1   3
HETATM    3  C   UNL     1      48.215  -7.849  -9.276  1.00  0.00     0.139 C 
HETATM    4  O   UNL     1      47.286  -7.897  -8.483  1.00  0.00    -0.650 OA
BRANCH   3   5
HETATM    5  C   UNL     1      48.104  -7.076 -10.565  1.00  0.00     0.110 C 
BRANCH   5   6
HETATM    6  C   UNL     1      49.451  -6.520 -11.053  1.00  0.00     0.010 C 
BRANCH   6   7
HETATM    7  C   UNL     1      49.419  -6.247 -12.561  1.00  0.00     0.001 C 
BRANCH   7   8
HETATM    8  C   UNL     1      48.631  -7.336 -13.300  1.00  0.00     0.000 C 
BRANCH   8   9
HETATM    9  C   UNL     1      47.567  -6.720 -14.216  1.00  0.00     0.000 C 
BRANCH   9  10
HETATM   10  C   UNL     1      47.807  -7.110 -15.679  1.00  0.00     0.000 C 
BRANCH  10  11
HETATM   11  C   UNL     1      48.252  -5.898 -16.506  1.00  0.00     0.000 C 
BRANCH  11  12
HETATM   12  C   UNL     1      49.633  -6.133 -17.130  1.00  0.00     0.000 C 
BRANCH  12  13
HETATM   13  C   UNL     1      50.745  -5.953 -16.091  1.00  0.00     0.000 C 
BRANCH  13  14
HETATM   14  C   UNL     1      51.380  -7.300 -15.727  1.00  0.00     0.000 C 
BRANCH  14  15
HETATM   15  C   UNL     1      52.907  -7.242 -15.857  1.00  0.00     0.000 C 
BRANCH  15  16
HETATM   16  C   UNL     1      53.566  -8.426 -15.141  1.00  0.00     0.000 C 
BRANCH  16  17
HETATM   17  C   UNL     1      53.086  -8.526 -13.688  1.00  0.00    -0.000 C 
BRANCH  17  18
HETATM   18  C   UNL     1      53.868  -7.568 -12.782  1.00  0.00    -0.005 C 
HETATM   19  C   UNL     1      53.114  -7.298 -11.483  1.00  0.00     0.005 C 
ENDBRANCH  17  18
ENDBRANCH  16  17
ENDBRANCH  15  16
ENDBRANCH  14  15
ENDBRANCH  13  14
ENDBRANCH  12  13
ENDBRANCH  11  12
ENDBRANCH  10  11
ENDBRANCH   9  10
ENDBRANCH   8   9
ENDBRANCH   7   8
ENDBRANCH   6   7
ENDBRANCH   5   6
ENDBRANCH   3   5
ENDBRANCH   1   3
TORSDOF 15
ENDMDL
MODEL 7
REMARK VINA RESULT:      -4.3      2.009      4.772
REMARK  15 active torsions:
REMARK  status: ('A' for Active; 'I' for Inactive)
REMARK    1  A    between atoms: O_1  and  C_18 
REMARK    2  A    between atoms: C_3  and  C_4 
REMARK    3  A    between atoms: C_3  and  C_5 
REMARK    4  A    between atoms: C_4  and  C_6 
REMARK    5  A    between atoms: C_5  and  C_7 
REMARK    6  A    between atoms: C_6  and  C_8 
REMARK    7  A    between atoms: C_7  and  C_9 
REMARK    8  A    between atoms: C_8  and  C_10 
REMARK    9  A    between atoms: C_9  and  C_11 
REMARK   10  A    between atoms: C_10  and  C_12 
REMARK   11  A    between atoms: C_11  and  C_13 
REMARK   12  A    between atoms: C_12  and  C_14 
REMARK   13  A    between atoms: C_13  and  C_15 
REMARK   14  A    between atoms: C_14  and  C_16 
REMARK   15  A    between atoms: C_16  and  C_18 
ROOT
HETATM    1  O   UNL     1      52.821  -9.830 -18.769  1.00  0.00    -0.776 OA
HETATM    2  H   UNL     1      53.065 -10.506 -19.416  1.00  0.00     0.167 HD
ENDROOT
BRANCH   1   3
HETATM    3  C   UNL     1      53.160  -8.535 -18.942  1.00  0.00     0.139 C 
HETATM    4  O   UNL     1      54.330  -8.194 -18.834  1.00  0.00    -0.650 OA
BRANCH   3   5
HETATM    5  C   UNL     1      52.081  -7.535 -19.266  1.00  0.00     0.110 C 
BRANCH   5   6
HETATM    6  C   UNL     1      52.098  -7.085 -20.736  1.00  0.00     0.010 C 
BRANCH   6   7
HETATM    7  C   UNL     1      50.721  -6.570 -21.168  1.00  0.00     0.001 C 
BRANCH   7   8
HETATM    8  C   UNL     1      49.918  -6.067 -19.962  1.00  0.00     0.000 C 
BRANCH   8   9
HETATM    9  C   UNL     1      48.529  -6.716 -19.916  1.00  0.00     0.000 C 
BRANCH   9  10
HETATM   10  C   UNL     1      48.539  -7.975 -19.041  1.00  0.00     0.000 C 
BRANCH  10  11
HETATM   11  C   UNL     1      47.550  -7.844 -17.877  1.00  0.00     0.000 C 
BRANCH  11  12
HETATM   12  C   UNL     1      46.882  -6.465 -17.874  1.00  0.00     0.000 C 
BRANCH  12  13
HETATM   13  C   UNL     1      47.087  -5.756 -16.530  1.00  0.00     0.000 C 
BRANCH  13  14
HETATM   14  C   UNL     1      48.551  -5.339 -16.346  1.00  0.00     0.000 C 
BRANCH  14  15
HETATM   15  C   UNL     1      49.014  -5.576 -14.903  1.00  0.00     0.000 C 
BRANCH  15  16
HETATM   16  C   UNL     1      49.809  -6.882 -14.788  1.00  0.00     0.000 C 
BRANCH  16  17
HETATM   17  C   UNL     1      49.021  -7.939 -14.005  1.00  0.00    -0.000 C 
BRANCH  17  18
HETATM   18  C   UNL     1      47.856  -7.300 -13.239  1.00  0.00    -0.005 C 
HETATM   19  C   UNL     1      48.102  -7.336 -11.733  1.00  0.00     0.005 C 
ENDBRANCH  17  18
ENDBRANCH  16  17
ENDBRANCH  15  16
ENDBRANCH  14  15
ENDBRANCH  13  14
ENDBRANCH  12  13
ENDBRANCH  11  12
ENDBRANCH  10  11
ENDBRANCH   9  10
ENDBRANCH   8   9
ENDBRANCH   7   8
ENDBRANCH   6   7
ENDBRANCH   5   6
ENDBRANCH   3   5
ENDBRANCH   1   3
TORSDOF 15
ENDMDL
MODEL 8
REMARK VINA RESULT:      -4.2      3.053      6.398
REMARK  15 active torsions:
REMARK  status: ('A' for Active; 'I' for Inactive)
REMARK    1  A    between atoms: O_1  and  C_18 
REMARK    2  A    between atoms: C_3  and  C_4 
REMARK    3  A    between atoms: C_3  and  C_5 
REMARK    4  A    between atoms: C_4  and  C_6 
REMARK    5  A    between atoms: C_5  and  C_7 
REMARK    6  A    between atoms: C_6  and  C_8 
REMARK    7  A    between atoms: C_7  and  C_9 
REMARK    8  A    between atoms: C_8  and  C_10 
REMARK    9  A    between atoms: C_9  and  C_11 
REMARK   10  A    between atoms: C_10  and  C_12 
REMARK   11  A    between atoms: C_11  and  C_13 
REMARK   12  A    between atoms: C_12  and  C_14 
REMARK   13  A    between atoms: C_13  and  C_15 
REMARK   14  A    between atoms: C_14  and  C_16 
REMARK   15  A    between atoms: C_16  and  C_18 
ROOT
HETATM    1  O   UNL     1      49.470  -8.133 -19.690  1.00  0.00    -0.776 OA
HETATM    2  H   UNL     1      49.632  -8.976 -19.243  1.00  0.00     0.167 HD
ENDROOT
BRANCH   1   3
HETATM    3  C   UNL     1      48.328  -7.905 -20.372  1.00  0.00     0.139 C 
HETATM    4  O   UNL     1      48.211  -8.317 -21.517  1.00  0.00    -0.650 OA
BRANCH   3   5
HETATM    5  C   UNL     1      47.215  -7.143 -19.699  1.00  0.00     0.110 C 
BRANCH   5   6
HETATM    6  C   UNL     1      47.678  -6.378 -18.449  1.00  0.00     0.010 C 
BRANCH   6   7
HETATM    7  C   UNL     1      46.573  -6.340 -17.388  1.00  0.00     0.001 C 
BRANCH   7   8
HETATM    8  C   UNL     1      47.136  -5.922 -16.023  1.00  0.00     0.000 C 
BRANCH   8   9
HETATM    9  C   UNL     1      46.235  -6.412 -14.883  1.00  0.00     0.000 C 
BRANCH   9  10
HETATM   10  C   UNL     1      47.010  -7.317 -13.920  1.00  0.00     0.000 C 
BRANCH  10  11
HETATM   11  C   UNL     1      48.234  -7.934 -14.609  1.00  0.00     0.000 C 
BRANCH  11  12
HETATM   12  C   UNL     1      49.421  -8.028 -13.644  1.00  0.00     0.000 C 
BRANCH  12  13
HETATM   13  C   UNL     1      50.303  -6.777 -13.733  1.00  0.00     0.000 C 
BRANCH  13  14
HETATM   14  C   UNL     1      50.607  -6.218 -12.337  1.00  0.00     0.000 C 
BRANCH  14  15
HETATM   15  C   UNL     1      49.491  -5.276 -11.867  1.00  0.00     0.000 C 
BRANCH  15  16
HETATM   16  C   UNL     1      49.060  -5.608 -10.434  1.00  0.00     0.000 C 
BRANCH  16  17
HETATM   17  C   UNL     1      47.693  -6.302 -10.417  1.00  0.00    -0.000 C 
BRANCH  17  18
HETATM   18  C   UNL     1      47.785  -7.683  -9.760  1.00  0.00    -0.005 C 
HETATM   19  C   UNL     1      49.024  -7.790  -8.874  1.00  0.00     0.005 C 
ENDBRANCH  17  18
ENDBRANCH  16  17
ENDBRANCH  15  16
ENDBRANCH  14  15
ENDBRANCH  13  14
ENDBRANCH  12  13
ENDBRANCH  11  12
ENDBRANCH  10  11
ENDBRANCH   9  10
ENDBRANCH   8   9
ENDBRANCH   7   8
ENDBRANCH   6   7
ENDBRANCH   5   6
ENDBRANCH   3   5
ENDBRANCH   1   3
TORSDOF 15
ENDMDL
MODEL 9
REMARK VINA RESULT:      -4.2      4.831      7.414
REMARK  15 active torsions:
REMARK  status: ('A' for Active; 'I' for Inactive)
REMARK    1  A    between atoms: O_1  and  C_18 
REMARK    2  A    between atoms: C_3  and  C_4 
REMARK    3  A    between atoms: C_3  and  C_5 
REMARK    4  A    between atoms: C_4  and  C_6 
REMARK    5  A    between atoms: C_5  and  C_7 
REMARK    6  A    between atoms: C_6  and  C_8 
REMARK    7  A    between atoms: C_7  and  C_9 
REMARK    8  A    between atoms: C_8  and  C_10 
REMARK    9  A    between atoms: C_9  and  C_11 
REMARK   10  A    between atoms: C_10  and  C_12 
REMARK   11  A    between atoms: C_11  and  C_13 
REMARK   12  A    between atoms: C_12  and  C_14 
REMARK   13  A    between atoms: C_13  and  C_15 
REMARK   14  A    between atoms: C_14  and  C_16 
REMARK   15  A    between atoms: C_16  and  C_18 
ROOT
HETATM    1  O   UNL     1      54.911  -7.685  -9.764  1.00  0.00    -0.776 OA
HETATM    2  H   UNL     1      55.011  -7.208  -8.928  1.00  0.00     0.167 HD
ENDROOT
BRANCH   1   3
HETATM    3  C   UNL     1      53.703  -8.107 -10.194  1.00  0.00     0.139 C 
HETATM    4  O   UNL     1      53.117  -8.992  -9.587  1.00  0.00    -0.650 OA
BRANCH   3   5
HETATM    5  C   UNL     1      53.101  -7.470 -11.420  1.00  0.00     0.110 C 
BRANCH   5   6
HETATM    6  C   UNL     1      53.728  -7.971 -12.730  1.00  0.00     0.010 C 
BRANCH   6   7
HETATM    7  C   UNL     1      52.647  -8.319 -13.758  1.00  0.00     0.001 C 
BRANCH   7   8
HETATM    8  C   UNL     1      52.019  -7.050 -14.347  1.00  0.00     0.000 C 
BRANCH   8   9
HETATM    9  C   UNL     1      50.599  -7.324 -14.858  1.00  0.00     0.000 C 
BRANCH   9  10
HETATM   10  C   UNL     1      49.583  -6.394 -14.185  1.00  0.00     0.000 C 
BRANCH  10  11
HETATM   11  C   UNL     1      49.907  -6.211 -12.697  1.00  0.00     0.000 C 
BRANCH  11  12
HETATM   12  C   UNL     1      48.833  -5.368 -11.999  1.00  0.00     0.000 C 
BRANCH  12  13
HETATM   13  C   UNL     1      49.035  -5.367 -10.480  1.00  0.00     0.000 C 
BRANCH  13  14
HETATM   14  C   UNL     1      50.290  -6.159 -10.091  1.00  0.00     0.000 C 
BRANCH  14  15
HETATM   15  C   UNL     1      49.964  -7.223  -9.035  1.00  0.00     0.000 C 
BRANCH  15  16
HETATM   16  C   UNL     1      48.597  -7.862  -9.303  1.00  0.00     0.000 C 
BRANCH  16  17
HETATM   17  C   UNL     1      47.734  -7.865  -8.035  1.00  0.00    -0.000 C 
BRANCH  17  18
HETATM   18  C   UNL     1      46.634  -6.800  -8.117  1.00  0.00    -0.005 C 
HETATM   19  C   UNL     1      46.653  -5.893  -6.890  1.00  0.00     0.005 C 
ENDBRANCH  17  18
ENDBRANCH  16  17
ENDBRANCH  15  16
ENDBRANCH  14  15
ENDBRANCH  13  14
ENDBRANCH  12  13
ENDBRANCH  11  12
ENDBRANCH  10  11
ENDBRANCH   9  10
ENDBRANCH   8   9
ENDBRANCH   7   8
ENDBRANCH   6   7
ENDBRANCH   5   6
ENDBRANCH   3   5
ENDBRANCH   1   3
TORSDOF 15
ENDMDL
MODEL 10
REMARK VINA RESULT:      -4.2     23.296     26.114
REMARK  15 active torsions:
REMARK  status: ('A' for Active; 'I' for Inactive)
REMARK    1  A    between atoms: O_1  and  C_18 
REMARK    2  A    between atoms: C_3  and  C_4 
REMARK    3  A    between atoms: C_3  and  C_5 
REMARK    4  A    between atoms: C_4  and  C_6 
REMARK    5  A    between atoms: C_5  and  C_7 
REMARK    6  A    between atoms: C_6  and  C_8 
REMARK    7  A    between atoms: C_7  and  C_9 
REMARK    8  A    between atoms: C_8  and  C_10 
REMARK    9  A    between atoms: C_9  and  C_11 
REMARK   10  A    between atoms: C_10  and  C_12 
REMARK   11  A    between atoms: C_11  and  C_13 
REMARK   12  A    between atoms: C_12  and  C_14 
REMARK   13  A    between atoms: C_13  and  C_15 
REMARK   14  A    between atoms: C_14  and  C_16 
REMARK   15  A    between atoms: C_16  and  C_18 
ROOT
HETATM    1  O   UNL     1      27.640 -15.141  -6.637  1.00  0.00    -0.776 OA
HETATM    2  H   UNL     1      27.938 -14.714  -5.822  1.00  0.00     0.167 HD
ENDROOT
BRANCH   1   3
HETATM    3  C   UNL     1      26.974 -16.316  -6.614  1.00  0.00     0.139 C 
HETATM    4  O   UNL     1      26.411 -16.675  -5.590  1.00  0.00    -0.650 OA
BRANCH   3   5
HETATM    5  C   UNL     1      26.942 -17.161  -7.861  1.00  0.00     0.110 C 
BRANCH   5   6
HETATM    6  C   UNL     1      26.539 -16.370  -9.115  1.00  0.00     0.010 C 
BRANCH   6   7
HETATM    7  C   UNL     1      27.742 -16.161 -10.042  1.00  0.00     0.001 C 
BRANCH   7   8
HETATM    8  C   UNL     1      27.287 -15.774 -11.455  1.00  0.00     0.000 C 
BRANCH   8   9
HETATM    9  C   UNL     1      26.444 -16.889 -12.086  1.00  0.00     0.000 C 
BRANCH   9  10
HETATM   10  C   UNL     1      26.623 -16.919 -13.609  1.00  0.00     0.000 C 
BRANCH  10  11
HETATM   11  C   UNL     1      27.186 -15.588 -14.122  1.00  0.00     0.000 C 
BRANCH  11  12
HETATM   12  C   UNL     1      27.313 -15.596 -15.650  1.00  0.00     0.000 C 
BRANCH  12  13
HETATM   13  C   UNL     1      26.490 -16.734 -16.265  1.00  0.00     0.000 C 
BRANCH  13  14
HETATM   14  C   UNL     1      26.990 -17.076 -17.674  1.00  0.00     0.000 C 
BRANCH  14  15
HETATM   15  C   UNL     1      27.836 -15.934 -18.250  1.00  0.00     0.000 C 
BRANCH  15  16
HETATM   16  C   UNL     1      27.285 -15.470 -19.603  1.00  0.00     0.000 C 
BRANCH  16  17
HETATM   17  C   UNL     1      28.193 -14.406 -20.232  1.00  0.00    -0.000 C 
BRANCH  17  18
HETATM   18  C   UNL     1      28.103 -13.083 -19.463  1.00  0.00    -0.005 C 
HETATM   19  C   UNL     1      29.349 -12.230 -19.686  1.00  0.00     0.005 C 
ENDBRANCH  17  18
ENDBRANCH  16  17
ENDBRANCH  15  16
ENDBRANCH  14  15
ENDBRANCH  13  14
ENDBRANCH  12  13
ENDBRANCH  11  12
ENDBRANCH  10  11
ENDBRANCH   9  10
ENDBRANCH   8   9
ENDBRANCH   7   8
ENDBRANCH   6   7
ENDBRANCH   5   6
ENDBRANCH   3   5
ENDBRANCH   1   3
TORSDOF 15
ENDMDL
MODEL 11
REMARK VINA RESULT:      -4.1     32.913     34.789
REMARK  15 active torsions:
REMARK  status: ('A' for Active; 'I' for Inactive)
REMARK    1  A    between atoms: O_1  and  C_18 
REMARK    2  A    between atoms: C_3  and  C_4 
REMARK    3  A    between atoms: C_3  and  C_5 
REMARK    4  A    between atoms: C_4  and  C_6 
REMARK    5  A    between atoms: C_5  and  C_7 
REMARK    6  A    between atoms: C_6  and  C_8 
REMARK    7  A    between atoms: C_7  and  C_9 
REMARK    8  A    between atoms: C_8  and  C_10 
REMARK    9  A    between atoms: C_9  and  C_11 
REMARK   10  A    between atoms: C_10  and  C_12 
REMARK   11  A    between atoms: C_11  and  C_13 
REMARK   12  A    between atoms: C_12  and  C_14 
REMARK   13  A    between atoms: C_13  and  C_15 
REMARK   14  A    between atoms: C_14  and  C_16 
REMARK   15  A    between atoms: C_16  and  C_18 
ROOT
HETATM    1  O   UNL     1      24.250 -24.632 -16.548  1.00  0.00    -0.776 OA
HETATM    2  H   UNL     1      24.838 -23.889 -16.353  1.00  0.00     0.167 HD
ENDROOT
BRANCH   1   3
HETATM    3  C   UNL     1      23.147 -24.870 -15.808  1.00  0.00     0.139 C 
HETATM    4  O   UNL     1      22.494 -23.932 -15.372  1.00  0.00    -0.650 OA
BRANCH   3   5
HETATM    5  C   UNL     1      22.742 -26.296 -15.536  1.00  0.00     0.110 C 
BRANCH   5   6
HETATM    6  C   UNL     1      21.220 -26.487 -15.461  1.00  0.00     0.010 C 
BRANCH   6   7
HETATM    7  C   UNL     1      20.848 -27.524 -14.396  1.00  0.00     0.001 C 
BRANCH   7   8
HETATM    8  C   UNL     1      22.053 -28.405 -14.041  1.00  0.00     0.000 C 
BRANCH   8   9
HETATM    9  C   UNL     1      22.021 -28.813 -12.563  1.00  0.00     0.000 C 
BRANCH   9  10
HETATM   10  C   UNL     1      22.135 -27.586 -11.651  1.00  0.00     0.000 C 
BRANCH  10  11
HETATM   11  C   UNL     1      23.594 -27.131 -11.522  1.00  0.00     0.000 C 
BRANCH  11  12
HETATM   12  C   UNL     1      23.742 -25.648 -11.882  1.00  0.00     0.000 C 
BRANCH  12  13
HETATM   13  C   UNL     1      22.416 -24.902 -11.700  1.00  0.00     0.000 C 
BRANCH  13  14
HETATM   14  C   UNL     1      22.385 -24.154 -10.361  1.00  0.00     0.000 C 
BRANCH  14  15
HETATM   15  C   UNL     1      21.206 -24.618  -9.498  1.00  0.00     0.000 C 
BRANCH  15  16
HETATM   16  C   UNL     1      21.638 -25.720  -8.524  1.00  0.00     0.000 C 
BRANCH  16  17
HETATM   17  C   UNL     1      23.103 -25.543  -8.108  1.00  0.00    -0.000 C 
BRANCH  17  18
HETATM   18  C   UNL     1      23.731 -26.887  -7.720  1.00  0.00    -0.005 C 
HETATM   19  C   UNL     1      22.734 -28.031  -7.892  1.00  0.00     0.005 C 
ENDBRANCH  17  18
ENDBRANCH  16  17
ENDBRANCH  15  16
ENDBRANCH  14  15
ENDBRANCH  13  14
ENDBRANCH  12  13
ENDBRANCH  11  12
ENDBRANCH  10  11
ENDBRANCH   9  10
ENDBRANCH   8   9
ENDBRANCH   7   8
ENDBRANCH   6   7
ENDBRANCH   5   6
ENDBRANCH   3   5
ENDBRANCH   1   3
TORSDOF 15
ENDMDL
MODEL 12
REMARK VINA RESULT:      -4.1     22.405     24.545
REMARK  15 active torsions:
REMARK  status: ('A' for Active; 'I' for Inactive)
REMARK    1  A    between atoms: O_1  and  C_18 
REMARK    2  A    between atoms: C_3  and  C_4 
REMARK    3  A    between atoms: C_3  and  C_5 
REMARK    4  A    between atoms: C_4  and  C_6 
REMARK    5  A    between atoms: C_5  and  C_7 
REMARK    6  A    between atoms: C_6  and  C_8 
REMARK    7  A    between atoms: C_7  and  C_9 
REMARK    8  A    between atoms: C_8  and  C_10 
REMARK    9  A    between atoms: C_9  and  C_11 
REMARK   10  A    between atoms: C_10  and  C_12 
REMARK   11  A    between atoms: C_11  and  C_13 
REMARK   12  A    between atoms: C_12  and  C_14 
REMARK   13  A    between atoms: C_13  and  C_15 
REMARK   14  A    between atoms: C_14  and  C_16 
REMARK   15  A    between atoms: C_16  and  C_18 
ROOT
HETATM    1  O   UNL     1      27.521 -17.377  -8.465  1.00  0.00    -0.776 OA
HETATM    2  H   UNL     1      28.364 -17.823  -8.629  1.00  0.00     0.167 HD
ENDROOT
BRANCH   1   3
HETATM    3  C   UNL     1      27.192 -16.235  -9.105  1.00  0.00     0.139 C 
HETATM    4  O   UNL     1      26.567 -15.366  -8.514  1.00  0.00    -0.650 OA
BRANCH   3   5
HETATM    5  C   UNL     1      27.609 -16.056 -10.542  1.00  0.00     0.110 C 
BRANCH   5   6
HETATM    6  C   UNL     1      26.646 -16.722 -11.536  1.00  0.00     0.010 C 
BRANCH   6   7
HETATM    7  C   UNL     1      27.202 -16.663 -12.963  1.00  0.00     0.001 C 
BRANCH   7   8
HETATM    8  C   UNL     1      27.056 -15.254 -13.552  1.00  0.00     0.000 C 
BRANCH   8   9
HETATM    9  C   UNL     1      27.683 -15.174 -14.949  1.00  0.00     0.000 C 
BRANCH   9  10
HETATM   10  C   UNL     1      28.523 -13.900 -15.103  1.00  0.00     0.000 C 
BRANCH  10  11
HETATM   11  C   UNL     1      28.037 -12.802 -14.149  1.00  0.00     0.000 C 
BRANCH  11  12
HETATM   12  C   UNL     1      29.028 -11.634 -14.103  1.00  0.00     0.000 C 
BRANCH  12  13
HETATM   13  C   UNL     1      30.088 -11.854 -13.018  1.00  0.00     0.000 C 
BRANCH  13  14
HETATM   14  C   UNL     1      29.501 -12.612 -11.821  1.00  0.00     0.000 C 
BRANCH  14  15
HETATM   15  C   UNL     1      30.440 -13.735 -11.365  1.00  0.00     0.000 C 
BRANCH  15  16
HETATM   16  C   UNL     1      31.175 -14.355 -12.559  1.00  0.00     0.000 C 
BRANCH  16  17
HETATM   17  C   UNL     1      30.792 -15.830 -12.734  1.00  0.00    -0.000 C 
BRANCH  17  18
HETATM   18  C   UNL     1      31.694 -16.512 -13.770  1.00  0.00    -0.005 C 
HETATM   19  C   UNL     1      30.947 -16.749 -15.080  1.00  0.00     0.005 C 
ENDBRANCH  17  18
ENDBRANCH  16  17
ENDBRANCH  15  16
ENDBRANCH  14  15
ENDBRANCH  13  14
ENDBRANCH  12  13
ENDBRANCH  11  12
ENDBRANCH  10  11
ENDBRANCH   9  10
ENDBRANCH   8   9
ENDBRANCH   7   8
ENDBRANCH   6   7
ENDBRANCH   5   6
ENDBRANCH   3   5
ENDBRANCH   1   3
TORSDOF 15
ENDMDL
MODEL 13
REMARK VINA RESULT:      -4.1     18.890     21.544
REMARK  15 active torsions:
REMARK  status: ('A' for Active; 'I' for Inactive)
REMARK    1  A    between atoms: O_1  and  C_18 
REMARK    2  A    between atoms: C_3  and  C_4 
REMARK    3  A    between atoms: C_3  and  C_5 
REMARK    4  A    between atoms: C_4  and  C_6 
REMARK    5  A    between atoms: C_5  and  C_7 
REMARK    6  A    between atoms: C_6  and  C_8 
REMARK    7  A    between atoms: C_7  and  C_9 
REMARK    8  A    between atoms: C_8  and  C_10 
REMARK    9  A    between atoms: C_9  and  C_11 
REMARK   10  A    between atoms: C_10  and  C_12 
REMARK   11  A    between atoms: C_11  and  C_13 
REMARK   12  A    between atoms: C_12  and  C_14 
REMARK   13  A    between atoms: C_13  and  C_15 
REMARK   14  A    between atoms: C_14  and  C_16 
REMARK   15  A    between atoms: C_16  and  C_18 
ROOT
HETATM    1  O   UNL     1      36.548  -7.807 -13.538  1.00  0.00    -0.776 OA
HETATM    2  H   UNL     1      36.547  -8.679 -13.957  1.00  0.00     0.167 HD
ENDROOT
BRANCH   1   3
HETATM    3  C   UNL     1      35.506  -7.385 -12.790  1.00  0.00     0.139 C 
HETATM    4  O   UNL     1      35.212  -6.198 -12.773  1.00  0.00    -0.650 OA
BRANCH   3   5
HETATM    5  C   UNL     1      34.724  -8.395 -11.991  1.00  0.00     0.110 C 
BRANCH   5   6
HETATM    6  C   UNL     1      34.112  -9.507 -12.857  1.00  0.00     0.010 C 
BRANCH   6   7
HETATM    7  C   UNL     1      33.110 -10.341 -12.052  1.00  0.00     0.001 C 
BRANCH   7   8
HETATM    8  C   UNL     1      32.305 -11.270 -12.970  1.00  0.00     0.000 C 
BRANCH   8   9
HETATM    9  C   UNL     1      31.186 -11.976 -12.194  1.00  0.00     0.000 C 
BRANCH   9  10
HETATM   10  C   UNL     1      29.814 -11.396 -12.558  1.00  0.00     0.000 C 
BRANCH  10  11
HETATM   11  C   UNL     1      28.984 -12.406 -13.358  1.00  0.00     0.000 C 
BRANCH  11  12
HETATM   12  C   UNL     1      29.186 -12.214 -14.866  1.00  0.00     0.000 C 
BRANCH  12  13
HETATM   13  C   UNL     1      29.162 -13.559 -15.601  1.00  0.00     0.000 C 
BRANCH  13  14
HETATM   14  C   UNL     1      28.104 -14.494 -15.002  1.00  0.00     0.000 C 
BRANCH  14  15
HETATM   15  C   UNL     1      28.251 -15.917 -15.555  1.00  0.00     0.000 C 
BRANCH  15  16
HETATM   16  C   UNL     1      26.990 -16.344 -16.315  1.00  0.00     0.000 C 
BRANCH  16  17
HETATM   17  C   UNL     1      27.336 -16.823 -17.730  1.00  0.00    -0.000 C 
BRANCH  17  18
HETATM   18  C   UNL     1      26.184 -16.545 -18.702  1.00  0.00    -0.005 C 
HETATM   19  C   UNL     1      26.672 -16.540 -20.148  1.00  0.00     0.005 C 
ENDBRANCH  17  18
ENDBRANCH  16  17
ENDBRANCH  15  16
ENDBRANCH  14  15
ENDBRANCH  13  14
ENDBRANCH  12  13
ENDBRANCH  11  12
ENDBRANCH  10  11
ENDBRANCH   9  10
ENDBRANCH   8   9
ENDBRANCH   7   8
ENDBRANCH   6   7
ENDBRANCH   5   6
ENDBRANCH   3   5
ENDBRANCH   1   3
TORSDOF 15
ENDMDL
MODEL 14
REMARK VINA RESULT:      -4.1      3.203      6.359
REMARK  15 active torsions:
REMARK  status: ('A' for Active; 'I' for Inactive)
REMARK    1  A    between atoms: O_1  and  C_18 
REMARK    2  A    between atoms: C_3  and  C_4 
REMARK    3  A    between atoms: C_3  and  C_5 
REMARK    4  A    between atoms: C_4  and  C_6 
REMARK    5  A    between atoms: C_5  and  C_7 
REMARK    6  A    between atoms: C_6  and  C_8 
REMARK    7  A    between atoms: C_7  and  C_9 
REMARK    8  A    between atoms: C_8  and  C_10 
REMARK    9  A    between atoms: C_9  and  C_11 
REMARK   10  A    between atoms: C_10  and  C_12 
REMARK   11  A    between atoms: C_11  and  C_13 
REMARK   12  A    between atoms: C_12  and  C_14 
REMARK   13  A    between atoms: C_13  and  C_15 
REMARK   14  A    between atoms: C_14  and  C_16 
REMARK   15  A    between atoms: C_16  and  C_18 
ROOT
HETATM    1  O   UNL     1      49.538  -8.206 -19.195  1.00  0.00    -0.776 OA
HETATM    2  H   UNL     1      48.941  -8.665 -19.802  1.00  0.00     0.167 HD
ENDROOT
BRANCH   1   3
HETATM    3  C   UNL     1      49.169  -7.915 -17.929  1.00  0.00     0.139 C 
HETATM    4  O   UNL     1      48.299  -8.578 -17.383  1.00  0.00    -0.650 OA
BRANCH   3   5
HETATM    5  C   UNL     1      49.845  -6.773 -17.215  1.00  0.00     0.110 C 
BRANCH   5   6
HETATM    6  C   UNL     1      49.085  -5.444 -17.348  1.00  0.00     0.010 C 
BRANCH   6   7
HETATM    7  C   UNL     1      48.096  -5.259 -16.192  1.00  0.00     0.001 C 
BRANCH   7   8
HETATM    8  C   UNL     1      46.705  -5.786 -16.569  1.00  0.00     0.000 C 
BRANCH   8   9
HETATM    9  C   UNL     1      46.006  -6.410 -15.356  1.00  0.00     0.000 C 
BRANCH   9  10
HETATM   10  C   UNL     1      46.999  -6.656 -14.215  1.00  0.00     0.000 C 
BRANCH  10  11
HETATM   11  C   UNL     1      46.275  -6.758 -12.867  1.00  0.00     0.000 C 
BRANCH  11  12
HETATM   12  C   UNL     1      47.030  -5.990 -11.776  1.00  0.00     0.000 C 
BRANCH  12  13
HETATM   13  C   UNL     1      46.866  -6.668 -10.411  1.00  0.00     0.000 C 
BRANCH  13  14
HETATM   14  C   UNL     1      47.920  -7.764 -10.210  1.00  0.00     0.000 C 
BRANCH  14  15
HETATM   15  C   UNL     1      48.872  -7.408  -9.062  1.00  0.00     0.000 C 
BRANCH  15  16
HETATM   16  C   UNL     1      49.824  -6.277  -9.468  1.00  0.00     0.000 C 
BRANCH  16  17
HETATM   17  C   UNL     1      50.778  -6.733 -10.579  1.00  0.00    -0.000 C 
BRANCH  17  18
HETATM   18  C   UNL     1      50.530  -5.947 -11.872  1.00  0.00    -0.005 C 
HETATM   19  C   UNL     1      50.440  -6.882 -13.076  1.00  0.00     0.005 C 
ENDBRANCH  17  18
ENDBRANCH  16  17
ENDBRANCH  15  16
ENDBRANCH  14  15
ENDBRANCH  13  14
ENDBRANCH  12  13
ENDBRANCH  11  12
ENDBRANCH  10  11
ENDBRANCH   9  10
ENDBRANCH   8   9
ENDBRANCH   7   8
ENDBRANCH   6   7
ENDBRANCH   5   6
ENDBRANCH   3   5
ENDBRANCH   1   3
TORSDOF 15
ENDMDL
MODEL 15
REMARK VINA RESULT:      -4.1     20.750     22.845
REMARK  15 active torsions:
REMARK  status: ('A' for Active; 'I' for Inactive)
REMARK    1  A    between atoms: O_1  and  C_18 
REMARK    2  A    between atoms: C_3  and  C_4 
REMARK    3  A    between atoms: C_3  and  C_5 
REMARK    4  A    between atoms: C_4  and  C_6 
REMARK    5  A    between atoms: C_5  and  C_7 
REMARK    6  A    between atoms: C_6  and  C_8 
REMARK    7  A    between atoms: C_7  and  C_9 
REMARK    8  A    between atoms: C_8  and  C_10 
REMARK    9  A    between atoms: C_9  and  C_11 
REMARK   10  A    between atoms: C_10  and  C_12 
REMARK   11  A    between atoms: C_11  and  C_13 
REMARK   12  A    between atoms: C_12  and  C_14 
REMARK   13  A    between atoms: C_13  and  C_15 
REMARK   14  A    between atoms: C_14  and  C_16 
REMARK   15  A    between atoms: C_16  and  C_18 
ROOT
HETATM    1  O   UNL     1      36.292  -8.055  -8.668  1.00  0.00    -0.776 OA
HETATM    2  H   UNL     1      37.219  -7.782  -8.715  1.00  0.00     0.167 HD
ENDROOT
BRANCH   1   3
HETATM    3  C   UNL     1      35.455  -7.550  -7.737  1.00  0.00     0.139 C 
HETATM    4  O   UNL     1      35.436  -6.346  -7.526  1.00  0.00    -0.650 OA
BRANCH   3   5
HETATM    5  C   UNL     1      34.558  -8.491  -6.975  1.00  0.00     0.110 C 
BRANCH   5   6
HETATM    6  C   UNL     1      33.985  -9.618  -7.848  1.00  0.00     0.010 C 
BRANCH   6   7
HETATM    7  C   UNL     1      32.938 -10.431  -7.078  1.00  0.00     0.001 C 
BRANCH   7   8
HETATM    8  C   UNL     1      32.001 -11.172  -8.040  1.00  0.00     0.000 C 
BRANCH   8   9
HETATM    9  C   UNL     1      30.555 -11.144  -7.530  1.00  0.00     0.000 C 
BRANCH   9  10
HETATM   10  C   UNL     1      29.587 -11.680  -8.591  1.00  0.00     0.000 C 
BRANCH  10  11
HETATM   11  C   UNL     1      30.337 -12.080  -9.867  1.00  0.00     0.000 C 
BRANCH  11  12
HETATM   12  C   UNL     1      29.375 -12.652 -10.915  1.00  0.00     0.000 C 
BRANCH  12  13
HETATM   13  C   UNL     1      28.142 -13.272 -10.250  1.00  0.00     0.000 C 
BRANCH  13  14
HETATM   14  C   UNL     1      27.630 -14.476 -11.052  1.00  0.00     0.000 C 
BRANCH  14  15
HETATM   15  C   UNL     1      28.035 -15.795 -10.384  1.00  0.00     0.000 C 
BRANCH  15  16
HETATM   16  C   UNL     1      29.001 -15.548  -9.220  1.00  0.00     0.000 C 
BRANCH  16  17
HETATM   17  C   UNL     1      28.821 -16.604  -8.122  1.00  0.00    -0.000 C 
BRANCH  17  18
HETATM   18  C   UNL     1      27.375 -17.113  -8.081  1.00  0.00    -0.005 C 
HETATM   19  C   UNL     1      26.632 -16.563  -6.866  1.00  0.00     0.005 C 
ENDBRANCH  17  18
ENDBRANCH  16  17
ENDBRANCH  15  16
ENDBRANCH  14  15
ENDBRANCH  13  14
ENDBRANCH  12  13
ENDBRANCH  11  12
ENDBRANCH  10  11
ENDBRANCH   9  10
ENDBRANCH   8   9
ENDBRANCH   7   8
ENDBRANCH   6   7
ENDBRANCH   5   6
ENDBRANCH   3   5
ENDBRANCH   1   3
TORSDOF 15
ENDMDL
MODEL 16
REMARK VINA RESULT:      -4.1      4.310      6.871
REMARK  15 active torsions:
REMARK  status: ('A' for Active; 'I' for Inactive)
REMARK    1  A    between atoms: O_1  and  C_18 
REMARK    2  A    between atoms: C_3  and  C_4 
REMARK    3  A    between atoms: C_3  and  C_5 
REMARK    4  A    between atoms: C_4  and  C_6 
REMARK    5  A    between atoms: C_5  and  C_7 
REMARK    6  A    between atoms: C_6  and  C_8 
REMARK    7  A    between atoms: C_7  and  C_9 
REMARK    8  A    between atoms: C_8  and  C_10 
REMARK    9  A    between atoms: C_9  and  C_11 
REMARK   10  A    between atoms: C_10  and  C_12 
REMARK   11  A    between atoms: C_11  and  C_13 
REMARK   12  A    between atoms: C_12  and  C_14 
REMARK   13  A    between atoms: C_13  and  C_15 
REMARK   14  A    between atoms: C_14  and  C_16 
REMARK   15  A    between atoms: C_16  and  C_18 
ROOT
HETATM    1  O   UNL     1      49.241  -8.422  -9.192  1.00  0.00    -0.776 OA
HETATM    2  H   UNL     1      49.739  -8.536  -8.370  1.00  0.00     0.167 HD
ENDROOT
BRANCH   1   3
HETATM    3  C   UNL     1      48.057  -7.774  -9.213  1.00  0.00     0.139 C 
HETATM    4  O   UNL     1      47.294  -7.872  -8.263  1.00  0.00    -0.650 OA
BRANCH   3   5
HETATM    5  C   UNL     1      47.703  -6.939 -10.417  1.00  0.00     0.110 C 
BRANCH   5   6
HETATM    6  C   UNL     1      48.925  -6.274 -11.069  1.00  0.00     0.010 C 
BRANCH   6   7
HETATM    7  C   UNL     1      48.658  -5.964 -12.546  1.00  0.00     0.001 C 
BRANCH   7   8
HETATM    8  C   UNL     1      47.922  -7.124 -13.228  1.00  0.00     0.000 C 
BRANCH   8   9
HETATM    9  C   UNL     1      46.674  -6.626 -13.967  1.00  0.00     0.000 C 
BRANCH   9  10
HETATM   10  C   UNL     1      46.745  -6.970 -15.459  1.00  0.00     0.000 C 
BRANCH  10  11
HETATM   11  C   UNL     1      46.872  -5.702 -16.311  1.00  0.00     0.000 C 
BRANCH  11  12
HETATM   12  C   UNL     1      48.174  -5.710 -17.121  1.00  0.00     0.000 C 
BRANCH  12  13
HETATM   13  C   UNL     1      49.386  -5.465 -16.216  1.00  0.00     0.000 C 
BRANCH  13  14
HETATM   14  C   UNL     1      50.328  -6.676 -16.221  1.00  0.00     0.000 C 
BRANCH  14  15
HETATM   15  C   UNL     1      51.754  -6.263 -16.607  1.00  0.00     0.000 C 
BRANCH  15  16
HETATM   16  C   UNL     1      52.780  -7.275 -16.085  1.00  0.00     0.000 C 
BRANCH  16  17
HETATM   17  C   UNL     1      53.809  -7.622 -17.167  1.00  0.00    -0.000 C 
BRANCH  17  18
HETATM   18  C   UNL     1      53.149  -8.360 -18.337  1.00  0.00    -0.005 C 
HETATM   19  C   UNL     1      54.027  -8.312 -19.585  1.00  0.00     0.005 C 
ENDBRANCH  17  18
ENDBRANCH  16  17
ENDBRANCH  15  16
ENDBRANCH  14  15
ENDBRANCH  13  14
ENDBRANCH  12  13
ENDBRANCH  11  12
ENDBRANCH  10  11
ENDBRANCH   9  10
ENDBRANCH   8   9
ENDBRANCH   7   8
ENDBRANCH   6   7
ENDBRANCH   5   6
ENDBRANCH   3   5
ENDBRANCH   1   3
TORSDOF 15
ENDMDL
MODEL 17
REMARK VINA RESULT:      -4.1     21.603     24.315
REMARK  15 active torsions:
REMARK  status: ('A' for Active; 'I' for Inactive)
REMARK    1  A    between atoms: O_1  and  C_18 
REMARK    2  A    between atoms: C_3  and  C_4 
REMARK    3  A    between atoms: C_3  and  C_5 
REMARK    4  A    between atoms: C_4  and  C_6 
REMARK    5  A    between atoms: C_5  and  C_7 
REMARK    6  A    between atoms: C_6  and  C_8 
REMARK    7  A    between atoms: C_7  and  C_9 
REMARK    8  A    between atoms: C_8  and  C_10 
REMARK    9  A    between atoms: C_9  and  C_11 
REMARK   10  A    between atoms: C_10  and  C_12 
REMARK   11  A    between atoms: C_11  and  C_13 
REMARK   12  A    between atoms: C_12  and  C_14 
REMARK   13  A    between atoms: C_13  and  C_15 
REMARK   14  A    between atoms: C_14  and  C_16 
REMARK   15  A    between atoms: C_16  and  C_18 
ROOT
HETATM    1  O   UNL     1      28.382 -16.767 -18.878  1.00  0.00    -0.776 OA
HETATM    2  H   UNL     1      28.749 -16.293 -19.637  1.00  0.00     0.167 HD
ENDROOT
BRANCH   1   3
HETATM    3  C   UNL     1      27.064 -16.722 -18.590  1.00  0.00     0.139 C 
HETATM    4  O   UNL     1      26.250 -16.577 -19.491  1.00  0.00    -0.650 OA
BRANCH   3   5
HETATM    5  C   UNL     1      26.625 -16.854 -17.155  1.00  0.00     0.110 C 
BRANCH   5   6
HETATM    6  C   UNL     1      27.169 -15.735 -16.253  1.00  0.00     0.010 C 
BRANCH   6   7
HETATM    7  C   UNL     1      27.655 -16.297 -14.912  1.00  0.00     0.001 C 
BRANCH   7   8
HETATM    8  C   UNL     1      26.472 -16.637 -13.997  1.00  0.00     0.000 C 
BRANCH   8   9
HETATM    9  C   UNL     1      26.791 -16.297 -12.536  1.00  0.00     0.000 C 
BRANCH   9  10
HETATM   10  C   UNL     1      28.254 -15.869 -12.378  1.00  0.00     0.000 C 
BRANCH  10  11
HETATM   11  C   UNL     1      28.356 -14.481 -11.734  1.00  0.00     0.000 C 
BRANCH  11  12
HETATM   12  C   UNL     1      27.346 -13.510 -12.357  1.00  0.00     0.000 C 
BRANCH  12  13
HETATM   13  C   UNL     1      27.934 -12.822 -13.594  1.00  0.00     0.000 C 
BRANCH  13  14
HETATM   14  C   UNL     1      29.238 -12.093 -13.250  1.00  0.00     0.000 C 
BRANCH  14  15
HETATM   15  C   UNL     1      30.258 -12.221 -14.389  1.00  0.00     0.000 C 
BRANCH  15  16
HETATM   16  C   UNL     1      29.893 -13.379 -15.326  1.00  0.00     0.000 C 
BRANCH  16  17
HETATM   17  C   UNL     1      31.134 -14.201 -15.694  1.00  0.00    -0.000 C 
BRANCH  17  18
HETATM   18  C   UNL     1      31.591 -15.065 -14.513  1.00  0.00    -0.005 C 
HETATM   19  C   UNL     1      31.180 -16.522 -14.705  1.00  0.00     0.005 C 
ENDBRANCH  17  18
ENDBRANCH  16  17
ENDBRANCH  15  16
ENDBRANCH  14  15
ENDBRANCH  13  14
ENDBRANCH  12  13
ENDBRANCH  11  12
ENDBRANCH  10  11
ENDBRANCH   9  10
ENDBRANCH   8   9
ENDBRANCH   7   8
ENDBRANCH   6   7
ENDBRANCH   5   6
ENDBRANCH   3   5
ENDBRANCH   1   3
TORSDOF 15
ENDMDL
MODEL 18
REMARK VINA RESULT:      -4.0     21.887     24.490
REMARK  15 active torsions:
REMARK  status: ('A' for Active; 'I' for Inactive)
REMARK    1  A    between atoms: O_1  and  C_18 
REMARK    2  A    between atoms: C_3  and  C_4 
REMARK    3  A    between atoms: C_3  and  C_5 
REMARK    4  A    between atoms: C_4  and  C_6 
REMARK    5  A    between atoms: C_5  and  C_7 
REMARK    6  A    between atoms: C_6  and  C_8 
REMARK    7  A    between atoms: C_7  and  C_9 
REMARK    8  A    between atoms: C_8  and  C_10 
REMARK    9  A    between atoms: C_9  and  C_11 
REMARK   10  A    between atoms: C_10  and  C_12 
REMARK   11  A    between atoms: C_11  and  C_13 
REMARK   12  A    between atoms: C_12  and  C_14 
REMARK   13  A    between atoms: C_13  and  C_15 
REMARK   14  A    between atoms: C_14  and  C_16 
REMARK   15  A    between atoms: C_16  and  C_18 
ROOT
HETATM    1  O   UNL     1      27.856 -16.832 -18.585  1.00  0.00    -0.776 OA
HETATM    2  H   UNL     1      28.786 -16.577 -18.509  1.00  0.00     0.167 HD
ENDROOT
BRANCH   1   3
HETATM    3  C   UNL     1      27.019 -16.765 -17.528  1.00  0.00     0.139 C 
HETATM    4  O   UNL     1      26.097 -17.561 -17.432  1.00  0.00    -0.650 OA
BRANCH   3   5
HETATM    5  C   UNL     1      27.245 -15.702 -16.484  1.00  0.00     0.110 C 
BRANCH   5   6
HETATM    6  C   UNL     1      27.737 -16.268 -15.143  1.00  0.00     0.010 C 
BRANCH   6   7
HETATM    7  C   UNL     1      26.588 -16.368 -14.133  1.00  0.00     0.001 C 
BRANCH   7   8
HETATM    8  C   UNL     1      26.945 -17.321 -12.986  1.00  0.00     0.000 C 
BRANCH   8   9
HETATM    9  C   UNL     1      26.570 -16.713 -11.629  1.00  0.00     0.000 C 
BRANCH   9  10
HETATM   10  C   UNL     1      27.427 -15.478 -11.324  1.00  0.00     0.000 C 
BRANCH  10  11
HETATM   11  C   UNL     1      28.892 -15.868 -11.097  1.00  0.00     0.000 C 
BRANCH  11  12
HETATM   12  C   UNL     1      29.652 -14.753 -10.368  1.00  0.00     0.000 C 
BRANCH  12  13
HETATM   13  C   UNL     1      28.804 -13.480 -10.273  1.00  0.00     0.000 C 
BRANCH  13  14
HETATM   14  C   UNL     1      29.683 -12.226 -10.364  1.00  0.00     0.000 C 
BRANCH  14  15
HETATM   15  C   UNL     1      31.029 -12.543 -11.027  1.00  0.00     0.000 C 
BRANCH  15  16
HETATM   16  C   UNL     1      31.009 -12.177 -12.515  1.00  0.00     0.000 C 
BRANCH  16  17
HETATM   17  C   UNL     1      29.855 -11.217 -12.830  1.00  0.00    -0.000 C 
BRANCH  17  18
HETATM   18  C   UNL     1      29.104 -11.655 -14.092  1.00  0.00    -0.005 C 
HETATM   19  C   UNL     1      28.366 -12.972 -13.865  1.00  0.00     0.005 C 
ENDBRANCH  17  18
ENDBRANCH  16  17
ENDBRANCH  15  16
ENDBRANCH  14  15
ENDBRANCH  13  14
ENDBRANCH  12  13
ENDBRANCH  11  12
ENDBRANCH  10  11
ENDBRANCH   9  10
ENDBRANCH   8   9
ENDBRANCH   7   8
ENDBRANCH   6   7
ENDBRANCH   5   6
ENDBRANCH   3   5
ENDBRANCH   1   3
TORSDOF 15
ENDMDL
MODEL 19
REMARK VINA RESULT:      -4.0      2.902      5.136
REMARK  15 active torsions:
REMARK  status: ('A' for Active; 'I' for Inactive)
REMARK    1  A    between atoms: O_1  and  C_18 
REMARK    2  A    between atoms: C_3  and  C_4 
REMARK    3  A    between atoms: C_3  and  C_5 
REMARK    4  A    between atoms: C_4  and  C_6 
REMARK    5  A    between atoms: C_5  and  C_7 
REMARK    6  A    between atoms: C_6  and  C_8 
REMARK    7  A    between atoms: C_7  and  C_9 
REMARK    8  A    between atoms: C_8  and  C_10 
REMARK    9  A    between atoms: C_9  and  C_11 
REMARK   10  A    between atoms: C_10  and  C_12 
REMARK   11  A    between atoms: C_11  and  C_13 
REMARK   12  A    between atoms: C_12  and  C_14 
REMARK   13  A    between atoms: C_13  and  C_15 
REMARK   14  A    between atoms: C_14  and  C_16 
REMARK   15  A    between atoms: C_16  and  C_18 
ROOT
HETATM    1  O   UNL     1      51.483  -7.825 -13.228  1.00  0.00    -0.776 OA
HETATM    2  H   UNL     1      50.974  -7.083 -12.872  1.00  0.00     0.167 HD
ENDROOT
BRANCH   1   3
HETATM    3  C   UNL     1      52.706  -8.135 -12.746  1.00  0.00     0.139 C 
HETATM    4  O   UNL     1      53.077  -7.663 -11.681  1.00  0.00    -0.650 OA
BRANCH   3   5
HETATM    5  C   UNL     1      53.589  -9.064 -13.539  1.00  0.00     0.110 C 
BRANCH   5   6
HETATM    6  C   UNL     1      53.587  -8.758 -15.045  1.00  0.00     0.010 C 
BRANCH   6   7
HETATM    7  C   UNL     1      54.347  -7.461 -15.343  1.00  0.00     0.001 C 
BRANCH   7   8
HETATM    8  C   UNL     1      53.700  -6.700 -16.507  1.00  0.00     0.000 C 
BRANCH   8   9
HETATM    9  C   UNL     1      52.282  -7.213 -16.781  1.00  0.00     0.000 C 
BRANCH   9  10
HETATM   10  C   UNL     1      51.230  -6.199 -16.317  1.00  0.00     0.000 C 
BRANCH  10  11
HETATM   11  C   UNL     1      49.911  -6.388 -17.074  1.00  0.00     0.000 C 
BRANCH  11  12
HETATM   12  C   UNL     1      48.768  -5.628 -16.390  1.00  0.00     0.000 C 
BRANCH  12  13
HETATM   13  C   UNL     1      47.455  -6.415 -16.475  1.00  0.00     0.000 C 
BRANCH  13  14
HETATM   14  C   UNL     1      46.881  -6.679 -15.078  1.00  0.00     0.000 C 
BRANCH  14  15
HETATM   15  C   UNL     1      48.000  -6.937 -14.062  1.00  0.00     0.000 C 
BRANCH  15  16
HETATM   16  C   UNL     1      47.434  -7.078 -12.644  1.00  0.00     0.000 C 
BRANCH  16  17
HETATM   17  C   UNL     1      47.653  -5.794 -11.835  1.00  0.00    -0.000 C 
BRANCH  17  18
HETATM   18  C   UNL     1      48.918  -5.061 -12.298  1.00  0.00    -0.005 C 
HETATM   19  C   UNL     1      50.113  -5.413 -11.416  1.00  0.00     0.005 C 
ENDBRANCH  17  18
ENDBRANCH  16  17
ENDBRANCH  15  16
ENDBRANCH  14  15
ENDBRANCH  13  14
ENDBRANCH  12  13
ENDBRANCH  11  12
ENDBRANCH  10  11
ENDBRANCH   9  10
ENDBRANCH   8   9
ENDBRANCH   7   8
ENDBRANCH   6   7
ENDBRANCH   5   6
ENDBRANCH   3   5
ENDBRANCH   1   3
TORSDOF 15
ENDMDL
MODEL 20
REMARK VINA RESULT:      -4.0     22.892     24.859
REMARK  15 active torsions:
REMARK  status: ('A' for Active; 'I' for Inactive)
REMARK    1  A    between atoms: O_1  and  C_18 
REMARK    2  A    between atoms: C_3  and  C_4 
REMARK    3  A    between atoms: C_3  and  C_5 
REMARK    4  A    between atoms: C_4  and  C_6 
REMARK    5  A    between atoms: C_5  and  C_7 
REMARK    6  A    between atoms: C_6  and  C_8 
REMARK    7  A    between atoms: C_7  and  C_9 
REMARK    8  A    between atoms: C_8  and  C_10 
REMARK    9  A    between atoms: C_9  and  C_11 
REMARK   10  A    between atoms: C_10  and  C_12 
REMARK   11  A    between atoms: C_11  and  C_13 
REMARK   12  A    between atoms: C_12  and  C_14 
REMARK   13  A    between atoms: C_13  and  C_15 
REMARK   14  A    between atoms: C_14  and  C_16 
REMARK   15  A    between atoms: C_16  and  C_18 
ROOT
HETATM    1  O   UNL     1      26.513 -17.061 -11.114  1.00  0.00    -0.776 OA
HETATM    2  H   UNL     1      26.844 -17.748 -11.709  1.00  0.00     0.167 HD
ENDROOT
BRANCH   1   3
HETATM    3  C   UNL     1      27.046 -15.821 -11.104  1.00  0.00     0.139 C 
HETATM    4  O   UNL     1      27.098 -15.191 -10.057  1.00  0.00    -0.650 OA
BRANCH   3   5
HETATM    5  C   UNL     1      27.568 -15.240 -12.392  1.00  0.00     0.110 C 
BRANCH   5   6
HETATM    6  C   UNL     1      27.298 -13.733 -12.528  1.00  0.00     0.010 C 
BRANCH   6   7
HETATM    7  C   UNL     1      28.595 -12.966 -12.806  1.00  0.00     0.001 C 
BRANCH   7   8
HETATM    8  C   UNL     1      28.438 -12.041 -14.019  1.00  0.00     0.000 C 
BRANCH   8   9
HETATM    9  C   UNL     1      29.521 -12.320 -15.068  1.00  0.00     0.000 C 
BRANCH   9  10
HETATM   10  C   UNL     1      29.343 -13.711 -15.686  1.00  0.00     0.000 C 
BRANCH  10  11
HETATM   11  C   UNL     1      27.989 -13.830 -16.395  1.00  0.00     0.000 C 
BRANCH  11  12
HETATM   12  C   UNL     1      27.310 -15.165 -16.068  1.00  0.00     0.000 C 
BRANCH  12  13
HETATM   13  C   UNL     1      27.998 -16.325 -16.795  1.00  0.00     0.000 C 
BRANCH  13  14
HETATM   14  C   UNL     1      27.003 -17.093 -17.673  1.00  0.00     0.000 C 
BRANCH  14  15
HETATM   15  C   UNL     1      26.545 -16.238 -18.861  1.00  0.00     0.000 C 
BRANCH  15  16
HETATM   16  C   UNL     1      27.713 -15.942 -19.809  1.00  0.00     0.000 C 
BRANCH  16  17
HETATM   17  C   UNL     1      27.351 -14.826 -20.796  1.00  0.00    -0.000 C 
BRANCH  17  18
HETATM   18  C   UNL     1      28.220 -13.584 -20.564  1.00  0.00    -0.005 C 
HETATM   19  C   UNL     1      29.463 -13.926 -19.747  1.00  0.00     0.005 C 
ENDBRANCH  17  18
ENDBRANCH  16  17
ENDBRANCH  15  16
ENDBRANCH  14  15
ENDBRANCH  13  14
ENDBRANCH  12  13
ENDBRANCH  11  12
ENDBRANCH  10  11
ENDBRANCH   9  10
ENDBRANCH   8   9
ENDBRANCH   7   8
ENDBRANCH   6   7
ENDBRANCH   5   6
ENDBRANCH   3   5
ENDBRANCH   1   3
TORSDOF 15
ENDMDL
