MODEL 1
REMARK VINA RESULT:      -4.8      0.000      0.000
REMARK  11 active torsions:
REMARK  status: ('A' for Active; 'I' for Inactive)
REMARK    1  A    between atoms: O_1  and  C_14 
REMARK    2  A    between atoms: C_3  and  C_4 
REMARK    3  A    between atoms: C_3  and  C_5 
REMARK    4  A    between atoms: C_4  and  C_6 
REMARK    5  A    between atoms: C_5  and  C_7 
REMARK    6  A    between atoms: C_6  and  C_8 
REMARK    7  A    between atoms: C_7  and  C_9 
REMARK    8  A    between atoms: C_8  and  C_10 
REMARK    9  A    between atoms: C_9  and  C_11 
REMARK   10  A    between atoms: C_10  and  C_12 
REMARK   11  A    between atoms: C_12  and  C_14 
ROOT
HETATM    1  O   UNL     1     -11.636   3.340 -10.870  1.00  0.00    -0.776 OA
HETATM    2  H   UNL     1     -11.811   3.297 -11.821  1.00  0.00     0.167 HD
ENDROOT
BRANCH   1   3
HETATM    3  C   UNL     1     -10.396   3.149 -10.371  1.00  0.00     0.139 C 
HETATM    4  O   UNL     1     -10.169   3.400  -9.196  1.00  0.00    -0.650 OA
BRANCH   3   5
HETATM    5  C   UNL     1      -9.315   2.630 -11.283  1.00  0.00     0.110 C 
BRANCH   5   6
HETATM    6  C   UNL     1      -8.605   3.742 -12.070  1.00  0.00     0.010 C 
BRANCH   6   7
HETATM    7  C   UNL     1      -8.642   3.458 -13.576  1.00  0.00     0.001 C 
BRANCH   7   8
HETATM    8  C   UNL     1     -10.086   3.336 -14.077  1.00  0.00     0.000 C 
BRANCH   8   9
HETATM    9  C   UNL     1     -10.124   3.054 -15.583  1.00  0.00     0.000 C 
BRANCH   9  10
HETATM   10  C   UNL     1      -9.346   4.119 -16.364  1.00  0.00     0.000 C 
BRANCH  10  11
HETATM   11  C   UNL     1      -8.886   3.581 -17.724  1.00  0.00     0.000 C 
BRANCH  11  12
HETATM   12  C   UNL     1     -10.044   2.905 -18.468  1.00  0.00     0.000 C 
BRANCH  12  13
HETATM   13  C   UNL     1     -10.288   3.572 -19.827  1.00  0.00    -0.000 C 
BRANCH  13  14
HETATM   14  C   UNL     1      -9.840   2.660 -20.975  1.00  0.00    -0.005 C 
HETATM   15  C   UNL     1      -8.365   2.874 -21.304  1.00  0.00     0.005 C 
ENDBRANCH  13  14
ENDBRANCH  12  13
ENDBRANCH  11  12
ENDBRANCH  10  11
ENDBRANCH   9  10
ENDBRANCH   8   9
ENDBRANCH   7   8
ENDBRANCH   6   7
ENDBRANCH   5   6
ENDBRANCH   3   5
ENDBRANCH   1   3
TORSDOF 11
ENDMDL
MODEL 2
REMARK VINA RESULT:      -4.5      2.480      4.502
REMARK  11 active torsions:
REMARK  status: ('A' for Active; 'I' for Inactive)
REMARK    1  A    between atoms: O_1  and  C_14 
REMARK    2  A    between atoms: C_3  and  C_4 
REMARK    3  A    between atoms: C_3  and  C_5 
REMARK    4  A    between atoms: C_4  and  C_6 
REMARK    5  A    between atoms: C_5  and  C_7 
REMARK    6  A    between atoms: C_6  and  C_8 
REMARK    7  A    between atoms: C_7  and  C_9 
REMARK    8  A    between atoms: C_8  and  C_10 
REMARK    9  A    between atoms: C_9  and  C_11 
REMARK   10  A    between atoms: C_10  and  C_12 
REMARK   11  A    between atoms: C_12  and  C_14 
ROOT
HETATM    1  O   UNL     1     -10.366   3.097 -13.646  1.00  0.00    -0.776 OA
HETATM    2  H   UNL     1      -9.631   3.312 -13.053  1.00  0.00     0.167 HD
ENDROOT
BRANCH   1   3
HETATM    3  C   UNL     1     -10.334   3.420 -14.956  1.00  0.00     0.139 C 
HETATM    4  O   UNL     1     -11.369   3.423 -15.606  1.00  0.00    -0.650 OA
BRANCH   3   5
HETATM    5  C   UNL     1      -9.012   3.771 -15.589  1.00  0.00     0.110 C 
BRANCH   5   6
HETATM    6  C   UNL     1      -8.665   2.881 -16.792  1.00  0.00     0.010 C 
BRANCH   6   7
HETATM    7  C   UNL     1      -8.971   3.599 -18.112  1.00  0.00     0.001 C 
BRANCH   7   8
HETATM    8  C   UNL     1     -10.303   3.119 -18.702  1.00  0.00     0.000 C 
BRANCH   8   9
HETATM    9  C   UNL     1     -10.367   3.389 -20.210  1.00  0.00     0.000 C 
BRANCH   9  10
HETATM   10  C   UNL     1      -9.136   4.170 -20.682  1.00  0.00     0.000 C 
BRANCH  10  11
HETATM   11  C   UNL     1      -8.447   3.459 -21.853  1.00  0.00     0.000 C 
BRANCH  11  12
HETATM   12  C   UNL     1      -8.291   1.961 -21.572  1.00  0.00     0.000 C 
BRANCH  12  13
HETATM   13  C   UNL     1      -6.817   1.591 -21.362  1.00  0.00    -0.000 C 
BRANCH  13  14
HETATM   14  C   UNL     1      -6.670   0.116 -20.974  1.00  0.00    -0.005 C 
HETATM   15  C   UNL     1      -5.264  -0.183 -20.463  1.00  0.00     0.005 C 
ENDBRANCH  13  14
ENDBRANCH  12  13
ENDBRANCH  11  12
ENDBRANCH  10  11
ENDBRANCH   9  10
ENDBRANCH   8   9
ENDBRANCH   7   8
ENDBRANCH   6   7
ENDBRANCH   5   6
ENDBRANCH   3   5
ENDBRANCH   1   3
TORSDOF 11
ENDMDL
MODEL 3
REMARK VINA RESULT:      -4.4     21.706     23.329
REMARK  11 active torsions:
REMARK  status: ('A' for Active; 'I' for Inactive)
REMARK    1  A    between atoms: O_1  and  C_14 
REMARK    2  A    between atoms: C_3  and  C_4 
REMARK    3  A    between atoms: C_3  and  C_5 
REMARK    4  A    between atoms: C_4  and  C_6 
REMARK    5  A    between atoms: C_5  and  C_7 
REMARK    6  A    between atoms: C_6  and  C_8 
REMARK    7  A    between atoms: C_7  and  C_9 
REMARK    8  A    between atoms: C_8  and  C_10 
REMARK    9  A    between atoms: C_9  and  C_11 
REMARK   10  A    between atoms: C_10  and  C_12 
REMARK   11  A    between atoms: C_12  and  C_14 
ROOT
HETATM    1  O   UNL     1      12.137  -0.025 -21.349  1.00  0.00    -0.776 OA
HETATM    2  H   UNL     1      12.653   0.081 -22.161  1.00  0.00     0.167 HD
ENDROOT
BRANCH   1   3
HETATM    3  C   UNL     1      12.220  -1.147 -20.603  1.00  0.00     0.139 C 
HETATM    4  O   UNL     1      13.116  -1.952 -20.814  1.00  0.00    -0.650 OA
BRANCH   3   5
HETATM    5  C   UNL     1      11.198  -1.381 -19.520  1.00  0.00     0.110 C 
BRANCH   5   6
HETATM    6  C   UNL     1      11.813  -1.436 -18.113  1.00  0.00     0.010 C 
BRANCH   6   7
HETATM    7  C   UNL     1      10.775  -1.883 -17.078  1.00  0.00     0.001 C 
BRANCH   7   8
HETATM    8  C   UNL     1      10.857  -1.023 -15.810  1.00  0.00     0.000 C 
BRANCH   8   9
HETATM    9  C   UNL     1      12.267  -1.064 -15.208  1.00  0.00     0.000 C 
BRANCH   9  10
HETATM   10  C   UNL     1      12.224  -1.474 -13.732  1.00  0.00     0.000 C 
BRANCH  10  11
HETATM   11  C   UNL     1      10.791  -1.433 -13.189  1.00  0.00     0.000 C 
BRANCH  11  12
HETATM   12  C   UNL     1      10.773  -1.020 -11.713  1.00  0.00     0.000 C 
BRANCH  12  13
HETATM   13  C   UNL     1      12.196  -0.782 -11.191  1.00  0.00    -0.000 C 
BRANCH  13  14
HETATM   14  C   UNL     1      12.383  -1.405  -9.804  1.00  0.00    -0.005 C 
HETATM   15  C   UNL     1      11.051  -1.530  -9.070  1.00  0.00     0.005 C 
ENDBRANCH  13  14
ENDBRANCH  12  13
ENDBRANCH  11  12
ENDBRANCH  10  11
ENDBRANCH   9  10
ENDBRANCH   8   9
ENDBRANCH   7   8
ENDBRANCH   6   7
ENDBRANCH   5   6
ENDBRANCH   3   5
ENDBRANCH   1   3
TORSDOF 11
ENDMDL
MODEL 4
REMARK VINA RESULT:      -4.3      2.713      4.724
REMARK  11 active torsions:
REMARK  status: ('A' for Active; 'I' for Inactive)
REMARK    1  A    between atoms: O_1  and  C_14 
REMARK    2  A    between atoms: C_3  and  C_4 
REMARK    3  A    between atoms: C_3  and  C_5 
REMARK    4  A    between atoms: C_4  and  C_6 
REMARK    5  A    between atoms: C_5  and  C_7 
REMARK    6  A    between atoms: C_6  and  C_8 
REMARK    7  A    between atoms: C_7  and  C_9 
REMARK    8  A    between atoms: C_8  and  C_10 
REMARK    9  A    between atoms: C_9  and  C_11 
REMARK   10  A    between atoms: C_10  and  C_12 
REMARK   11  A    between atoms: C_12  and  C_14 
ROOT
HETATM    1  O   UNL     1     -11.477   3.475  -6.028  1.00  0.00    -0.776 OA
HETATM    2  H   UNL     1     -11.545   3.460  -6.993  1.00  0.00     0.167 HD
ENDROOT
BRANCH   1   3
HETATM    3  C   UNL     1     -10.325   3.164  -5.397  1.00  0.00     0.139 C 
HETATM    4  O   UNL     1     -10.280   3.175  -4.175  1.00  0.00    -0.650 OA
BRANCH   3   5
HETATM    5  C   UNL     1      -9.114   2.810  -6.221  1.00  0.00     0.110 C 
BRANCH   5   6
HETATM    6  C   UNL     1      -8.966   3.680  -7.479  1.00  0.00     0.010 C 
BRANCH   6   7
HETATM    7  C   UNL     1      -9.966   3.256  -8.560  1.00  0.00     0.001 C 
BRANCH   7   8
HETATM    8  C   UNL     1      -9.281   3.145  -9.928  1.00  0.00     0.000 C 
BRANCH   8   9
HETATM    9  C   UNL     1     -10.264   2.655 -10.998  1.00  0.00     0.000 C 
BRANCH   9  10
HETATM   10  C   UNL     1     -10.303   3.615 -12.193  1.00  0.00     0.000 C 
BRANCH  10  11
HETATM   11  C   UNL     1      -8.917   3.753 -12.835  1.00  0.00     0.000 C 
BRANCH  11  12
HETATM   12  C   UNL     1      -8.907   3.168 -14.251  1.00  0.00     0.000 C 
BRANCH  12  13
HETATM   13  C   UNL     1     -10.252   3.399 -14.951  1.00  0.00    -0.000 C 
BRANCH  13  14
HETATM   14  C   UNL     1     -10.117   3.231 -16.469  1.00  0.00    -0.005 C 
HETATM   15  C   UNL     1      -8.783   3.779 -16.968  1.00  0.00     0.005 C 
ENDBRANCH  13  14
ENDBRANCH  12  13
ENDBRANCH  11  12
ENDBRANCH  10  11
ENDBRANCH   9  10
ENDBRANCH   8   9
ENDBRANCH   7   8
ENDBRANCH   6   7
ENDBRANCH   5   6
ENDBRANCH   3   5
ENDBRANCH   1   3
TORSDOF 11
ENDMDL
MODEL 5
REMARK VINA RESULT:      -4.3     21.578     23.510
REMARK  11 active torsions:
REMARK  status: ('A' for Active; 'I' for Inactive)
REMARK    1  A    between atoms: O_1  and  C_14 
REMARK    2  A    between atoms: C_3  and  C_4 
REMARK    3  A    between atoms: C_3  and  C_5 
REMARK    4  A    between atoms: C_4  and  C_6 
REMARK    5  A    between atoms: C_5  and  C_7 
REMARK    6  A    between atoms: C_6  and  C_8 
REMARK    7  A    between atoms: C_7  and  C_9 
REMARK    8  A    between atoms: C_8  and  C_10 
REMARK    9  A    between atoms: C_9  and  C_11 
REMARK   10  A    between atoms: C_10  and  C_12 
REMARK   11  A    between atoms: C_12  and  C_14 
ROOT
HETATM    1  O   UNL     1      10.918  -1.381 -18.715  1.00  0.00    -0.776 OA
HETATM    2  H   UNL     1      11.057  -0.870 -19.526  1.00  0.00     0.167 HD
ENDROOT
BRANCH   1   3
HETATM    3  C   UNL     1      11.749  -1.266 -17.658  1.00  0.00     0.139 C 
HETATM    4  O   UNL     1      12.958  -1.234 -17.836  1.00  0.00    -0.650 OA
BRANCH   3   5
HETATM    5  C   UNL     1      11.160  -1.180 -16.273  1.00  0.00     0.110 C 
BRANCH   5   6
HETATM    6  C   UNL     1      12.207  -1.352 -15.162  1.00  0.00     0.010 C 
BRANCH   6   7
HETATM    7  C   UNL     1      11.533  -1.579 -13.804  1.00  0.00     0.001 C 
BRANCH   7   8
HETATM    8  C   UNL     1      12.435  -1.104 -12.657  1.00  0.00     0.000 C 
BRANCH   8   9
HETATM    9  C   UNL     1      11.603  -0.520 -11.509  1.00  0.00     0.000 C 
BRANCH   9  10
HETATM   10  C   UNL     1      10.978  -1.632 -10.659  1.00  0.00     0.000 C 
BRANCH  10  11
HETATM   11  C   UNL     1      11.882  -1.995  -9.474  1.00  0.00     0.000 C 
BRANCH  11  12
HETATM   12  C   UNL     1      12.153  -0.769  -8.594  1.00  0.00     0.000 C 
BRANCH  12  13
HETATM   13  C   UNL     1      12.496  -1.189  -7.159  1.00  0.00    -0.000 C 
BRANCH  13  14
HETATM   14  C   UNL     1      11.241  -1.638  -6.403  1.00  0.00    -0.005 C 
HETATM   15  C   UNL     1      10.113  -0.622  -6.554  1.00  0.00     0.005 C 
ENDBRANCH  13  14
ENDBRANCH  12  13
ENDBRANCH  11  12
ENDBRANCH  10  11
ENDBRANCH   9  10
ENDBRANCH   8   9
ENDBRANCH   7   8
ENDBRANCH   6   7
ENDBRANCH   5   6
ENDBRANCH   3   5
ENDBRANCH   1   3
TORSDOF 11
ENDMDL
MODEL 6
REMARK VINA RESULT:      -4.1     29.739     31.567
REMARK  11 active torsions:
REMARK  status: ('A' for Active; 'I' for Inactive)
REMARK    1  A    between atoms: O_1  and  C_14 
REMARK    2  A    between atoms: C_3  and  C_4 
REMARK    3  A    between atoms: C_3  and  C_5 
REMARK    4  A    between atoms: C_4  and  C_6 
REMARK    5  A    between atoms: C_5  and  C_7 
REMARK    6  A    between atoms: C_6  and  C_8 
REMARK    7  A    between atoms: C_7  and  C_9 
REMARK    8  A    between atoms: C_8  and  C_10 
REMARK    9  A    between atoms: C_9  and  C_11 
REMARK   10  A    between atoms: C_10  and  C_12 
REMARK   11  A    between atoms: C_12  and  C_14 
ROOT
HETATM    1  O   UNL     1      17.791   0.304 -26.503  1.00  0.00    -0.776 OA
HETATM    2  H   UNL     1      17.699  -0.380 -27.181  1.00  0.00     0.167 HD
ENDROOT
BRANCH   1   3
HETATM    3  C   UNL     1      18.946   0.983 -26.339  1.00  0.00     0.139 C 
HETATM    4  O   UNL     1      19.105   2.055 -26.905  1.00  0.00    -0.650 OA
BRANCH   3   5
HETATM    5  C   UNL     1      20.019   0.398 -25.457  1.00  0.00     0.110 C 
BRANCH   5   6
HETATM    6  C   UNL     1      20.723   1.450 -24.586  1.00  0.00     0.010 C 
BRANCH   6   7
HETATM    7  C   UNL     1      21.271   0.821 -23.300  1.00  0.00     0.001 C 
BRANCH   7   8
HETATM    8  C   UNL     1      20.827   1.616 -22.066  1.00  0.00     0.000 C 
BRANCH   8   9
HETATM    9  C   UNL     1      19.583   0.989 -21.425  1.00  0.00     0.000 C 
BRANCH   9  10
HETATM   10  C   UNL     1      19.824   0.680 -19.943  1.00  0.00     0.000 C 
BRANCH  10  11
HETATM   11  C   UNL     1      20.982   1.516 -19.385  1.00  0.00     0.000 C 
BRANCH  11  12
HETATM   12  C   UNL     1      21.407   1.014 -18.001  1.00  0.00     0.000 C 
BRANCH  12  13
HETATM   13  C   UNL     1      20.903   1.952 -16.897  1.00  0.00    -0.000 C 
BRANCH  13  14
HETATM   14  C   UNL     1      20.570   1.170 -15.622  1.00  0.00    -0.005 C 
HETATM   15  C   UNL     1      19.307   0.332 -15.804  1.00  0.00     0.005 C 
ENDBRANCH  13  14
ENDBRANCH  12  13
ENDBRANCH  11  12
ENDBRANCH  10  11
ENDBRANCH   9  10
ENDBRANCH   8   9
ENDBRANCH   7   8
ENDBRANCH   6   7
ENDBRANCH   5   6
ENDBRANCH   3   5
ENDBRANCH   1   3
TORSDOF 11
ENDMDL
MODEL 7
REMARK VINA RESULT:      -4.1      2.734      4.825
REMARK  11 active torsions:
REMARK  status: ('A' for Active; 'I' for Inactive)
REMARK    1  A    between atoms: O_1  and  C_14 
REMARK    2  A    between atoms: C_3  and  C_4 
REMARK    3  A    between atoms: C_3  and  C_5 
REMARK    4  A    between atoms: C_4  and  C_6 
REMARK    5  A    between atoms: C_5  and  C_7 
REMARK    6  A    between atoms: C_6  and  C_8 
REMARK    7  A    between atoms: C_7  and  C_9 
REMARK    8  A    between atoms: C_8  and  C_10 
REMARK    9  A    between atoms: C_9  and  C_11 
REMARK   10  A    between atoms: C_10  and  C_12 
REMARK   11  A    between atoms: C_12  and  C_14 
ROOT
HETATM    1  O   UNL     1     -10.306   3.289 -13.802  1.00  0.00    -0.776 OA
HETATM    2  H   UNL     1      -9.457   3.223 -13.342  1.00  0.00     0.167 HD
ENDROOT
BRANCH   1   3
HETATM    3  C   UNL     1     -10.372   3.543 -15.126  1.00  0.00     0.139 C 
HETATM    4  O   UNL     1     -11.421   3.361 -15.728  1.00  0.00    -0.650 OA
BRANCH   3   5
HETATM    5  C   UNL     1      -9.142   4.047 -15.835  1.00  0.00     0.110 C 
BRANCH   5   6
HETATM    6  C   UNL     1      -8.623   3.076 -16.906  1.00  0.00     0.010 C 
BRANCH   6   7
HETATM    7  C   UNL     1      -8.892   3.617 -18.315  1.00  0.00     0.001 C 
BRANCH   7   8
HETATM    8  C   UNL     1     -10.176   3.016 -18.899  1.00  0.00     0.000 C 
BRANCH   8   9
HETATM    9  C   UNL     1     -10.545   3.688 -20.226  1.00  0.00     0.000 C 
BRANCH   9  10
HETATM   10  C   UNL     1      -9.290   4.114 -20.996  1.00  0.00     0.000 C 
BRANCH  10  11
HETATM   11  C   UNL     1      -8.857   3.029 -21.989  1.00  0.00     0.000 C 
BRANCH  11  12
HETATM   12  C   UNL     1      -8.914   3.547 -23.430  1.00  0.00     0.000 C 
BRANCH  12  13
HETATM   13  C   UNL     1     -10.251   3.188 -24.091  1.00  0.00    -0.000 C 
BRANCH  13  14
HETATM   14  C   UNL     1     -10.234   3.527 -25.586  1.00  0.00    -0.005 C 
HETATM   15  C   UNL     1      -9.481   2.466 -26.383  1.00  0.00     0.005 C 
ENDBRANCH  13  14
ENDBRANCH  12  13
ENDBRANCH  11  12
ENDBRANCH  10  11
ENDBRANCH   9  10
ENDBRANCH   8   9
ENDBRANCH   7   8
ENDBRANCH   6   7
ENDBRANCH   5   6
ENDBRANCH   3   5
ENDBRANCH   1   3
TORSDOF 11
ENDMDL
MODEL 8
REMARK VINA RESULT:      -4.1     29.926     31.468
REMARK  11 active torsions:
REMARK  status: ('A' for Active; 'I' for Inactive)
REMARK    1  A    between atoms: O_1  and  C_14 
REMARK    2  A    between atoms: C_3  and  C_4 
REMARK    3  A    between atoms: C_3  and  C_5 
REMARK    4  A    between atoms: C_4  and  C_6 
REMARK    5  A    between atoms: C_5  and  C_7 
REMARK    6  A    between atoms: C_6  and  C_8 
REMARK    7  A    between atoms: C_7  and  C_9 
REMARK    8  A    between atoms: C_8  and  C_10 
REMARK    9  A    between atoms: C_9  and  C_11 
REMARK   10  A    between atoms: C_10  and  C_12 
REMARK   11  A    between atoms: C_12  and  C_14 
ROOT
HETATM    1  O   UNL     1      20.780   0.782 -17.263  1.00  0.00    -0.776 OA
HETATM    2  H   UNL     1      20.271   0.236 -17.879  1.00  0.00     0.167 HD
ENDROOT
BRANCH   1   3
HETATM    3  C   UNL     1      20.217   1.307 -16.155  1.00  0.00     0.139 C 
HETATM    4  O   UNL     1      18.999   1.346 -16.053  1.00  0.00    -0.650 OA
BRANCH   3   5
HETATM    5  C   UNL     1      21.110   1.837 -15.063  1.00  0.00     0.110 C 
BRANCH   5   6
HETATM    6  C   UNL     1      21.022   1.021 -13.764  1.00  0.00     0.010 C 
BRANCH   6   7
HETATM    7  C   UNL     1      21.371   1.886 -12.548  1.00  0.00     0.001 C 
BRANCH   7   8
HETATM    8  C   UNL     1      20.235   1.870 -11.517  1.00  0.00     0.000 C 
BRANCH   8   9
HETATM    9  C   UNL     1      20.044   0.467 -10.930  1.00  0.00     0.000 C 
BRANCH   9  10
HETATM   10  C   UNL     1      20.032   0.508  -9.397  1.00  0.00     0.000 C 
BRANCH  10  11
HETATM   11  C   UNL     1      21.144   1.417  -8.861  1.00  0.00     0.000 C 
BRANCH  11  12
HETATM   12  C   UNL     1      21.601   0.965  -7.470  1.00  0.00     0.000 C 
BRANCH  12  13
HETATM   13  C   UNL     1      20.960   1.826  -6.374  1.00  0.00    -0.000 C 
BRANCH  13  14
HETATM   14  C   UNL     1      19.472   1.495  -6.216  1.00  0.00    -0.005 C 
HETATM   15  C   UNL     1      19.274   0.065  -5.721  1.00  0.00     0.005 C 
ENDBRANCH  13  14
ENDBRANCH  12  13
ENDBRANCH  11  12
ENDBRANCH  10  11
ENDBRANCH   9  10
ENDBRANCH   8   9
ENDBRANCH   7   8
ENDBRANCH   6   7
ENDBRANCH   5   6
ENDBRANCH   3   5
ENDBRANCH   1   3
TORSDOF 11
ENDMDL
MODEL 9
REMARK VINA RESULT:      -3.9     37.106     38.007
REMARK  11 active torsions:
REMARK  status: ('A' for Active; 'I' for Inactive)
REMARK    1  A    between atoms: O_1  and  C_14 
REMARK    2  A    between atoms: C_3  and  C_4 
REMARK    3  A    between atoms: C_3  and  C_5 
REMARK    4  A    between atoms: C_4  and  C_6 
REMARK    5  A    between atoms: C_5  and  C_7 
REMARK    6  A    between atoms: C_6  and  C_8 
REMARK    7  A    between atoms: C_7  and  C_9 
REMARK    8  A    between atoms: C_8  and  C_10 
REMARK    9  A    between atoms: C_9  and  C_11 
REMARK   10  A    between atoms: C_10  and  C_12 
REMARK   11  A    between atoms: C_12  and  C_14 
ROOT
HETATM    1  O   UNL     1      15.789 -24.166  -8.545  1.00  0.00    -0.776 OA
HETATM    2  H   UNL     1      16.069 -23.659  -7.769  1.00  0.00     0.167 HD
ENDROOT
BRANCH   1   3
HETATM    3  C   UNL     1      15.561 -25.495  -8.474  1.00  0.00     0.139 C 
HETATM    4  O   UNL     1      16.177 -26.256  -9.206  1.00  0.00    -0.650 OA
BRANCH   3   5
HETATM    5  C   UNL     1      14.546 -26.010  -7.487  1.00  0.00     0.110 C 
BRANCH   5   6
HETATM    6  C   UNL     1      13.123 -26.072  -8.064  1.00  0.00     0.010 C 
BRANCH   6   7
HETATM    7  C   UNL     1      12.639 -27.522  -8.177  1.00  0.00     0.001 C 
BRANCH   7   8
HETATM    8  C   UNL     1      11.697 -27.696  -9.375  1.00  0.00     0.000 C 
BRANCH   8   9
HETATM    9  C   UNL     1      12.050 -26.714 -10.499  1.00  0.00     0.000 C 
BRANCH   9  10
HETATM   10  C   UNL     1      11.884 -27.370 -11.875  1.00  0.00     0.000 C 
BRANCH  10  11
HETATM   11  C   UNL     1      13.162 -27.231 -12.710  1.00  0.00     0.000 C 
BRANCH  11  12
HETATM   12  C   UNL     1      14.120 -26.212 -12.083  1.00  0.00     0.000 C 
BRANCH  12  13
HETATM   13  C   UNL     1      15.022 -25.578 -13.149  1.00  0.00    -0.000 C 
BRANCH  13  14
HETATM   14  C   UNL     1      14.468 -24.223 -13.604  1.00  0.00    -0.005 C 
HETATM   15  C   UNL     1      13.311 -23.775 -12.714  1.00  0.00     0.005 C 
ENDBRANCH  13  14
ENDBRANCH  12  13
ENDBRANCH  11  12
ENDBRANCH  10  11
ENDBRANCH   9  10
ENDBRANCH   8   9
ENDBRANCH   7   8
ENDBRANCH   6   7
ENDBRANCH   5   6
ENDBRANCH   3   5
ENDBRANCH   1   3
TORSDOF 11
ENDMDL
MODEL 10
REMARK VINA RESULT:      -3.9     26.168     27.236
REMARK  11 active torsions:
REMARK  status: ('A' for Active; 'I' for Inactive)
REMARK    1  A    between atoms: O_1  and  C_14 
REMARK    2  A    between atoms: C_3  and  C_4 
REMARK    3  A    between atoms: C_3  and  C_5 
REMARK    4  A    between atoms: C_4  and  C_6 
REMARK    5  A    between atoms: C_5  and  C_7 
REMARK    6  A    between atoms: C_6  and  C_8 
REMARK    7  A    between atoms: C_7  and  C_9 
REMARK    8  A    between atoms: C_8  and  C_10 
REMARK    9  A    between atoms: C_9  and  C_11 
REMARK   10  A    between atoms: C_10  and  C_12 
REMARK   11  A    between atoms: C_12  and  C_14 
ROOT
HETATM    1  O   UNL     1      13.274 -13.193 -19.753  1.00  0.00    -0.776 OA
HETATM    2  H   UNL     1      13.989 -13.838 -19.854  1.00  0.00     0.167 HD
ENDROOT
BRANCH   1   3
HETATM    3  C   UNL     1      11.978 -13.568 -19.779  1.00  0.00     0.139 C 
HETATM    4  O   UNL     1      11.422 -13.758 -20.851  1.00  0.00    -0.650 OA
BRANCH   3   5
HETATM    5  C   UNL     1      11.242 -13.742 -18.475  1.00  0.00     0.110 C 
BRANCH   5   6
HETATM    6  C   UNL     1       9.721 -13.867 -18.654  1.00  0.00     0.010 C 
BRANCH   6   7
HETATM    7  C   UNL     1       9.011 -12.577 -18.229  1.00  0.00     0.001 C 
BRANCH   7   8
HETATM    8  C   UNL     1       8.387 -12.726 -16.836  1.00  0.00     0.000 C 
BRANCH   8   9
HETATM    9  C   UNL     1       9.194 -11.955 -15.785  1.00  0.00     0.000 C 
BRANCH   9  10
HETATM   10  C   UNL     1       8.936 -12.507 -14.378  1.00  0.00     0.000 C 
BRANCH  10  11
HETATM   11  C   UNL     1      10.185 -13.197 -13.819  1.00  0.00     0.000 C 
BRANCH  11  12
HETATM   12  C   UNL     1      11.387 -12.998 -14.749  1.00  0.00     0.000 C 
BRANCH  12  13
HETATM   13  C   UNL     1      12.129 -14.320 -14.979  1.00  0.00    -0.000 C 
BRANCH  13  14
HETATM   14  C   UNL     1      11.263 -15.515 -14.567  1.00  0.00    -0.005 C 
HETATM   15  C   UNL     1      10.652 -16.200 -15.787  1.00  0.00     0.005 C 
ENDBRANCH  13  14
ENDBRANCH  12  13
ENDBRANCH  11  12
ENDBRANCH  10  11
ENDBRANCH   9  10
ENDBRANCH   8   9
ENDBRANCH   7   8
ENDBRANCH   6   7
ENDBRANCH   5   6
ENDBRANCH   3   5
ENDBRANCH   1   3
TORSDOF 11
ENDMDL
MODEL 11
REMARK VINA RESULT:      -3.9     25.068     26.225
REMARK  11 active torsions:
REMARK  status: ('A' for Active; 'I' for Inactive)
REMARK    1  A    between atoms: O_1  and  C_14 
REMARK    2  A    between atoms: C_3  and  C_4 
REMARK    3  A    between atoms: C_3  and  C_5 
REMARK    4  A    between atoms: C_4  and  C_6 
REMARK    5  A    between atoms: C_5  and  C_7 
REMARK    6  A    between atoms: C_6  and  C_8 
REMARK    7  A    between atoms: C_7  and  C_9 
REMARK    8  A    between atoms: C_8  and  C_10 
REMARK    9  A    between atoms: C_9  and  C_11 
REMARK   10  A    between atoms: C_10  and  C_12 
REMARK   11  A    between atoms: C_12  and  C_14 
ROOT
HETATM    1  O   UNL     1       7.161 -12.450  -6.074  1.00  0.00    -0.776 OA
HETATM    2  H   UNL     1       6.353 -11.931  -6.191  1.00  0.00     0.167 HD
ENDROOT
BRANCH   1   3
HETATM    3  C   UNL     1       8.374 -11.948  -6.390  1.00  0.00     0.139 C 
HETATM    4  O   UNL     1       8.963 -11.236  -5.591  1.00  0.00    -0.650 OA
BRANCH   3   5
HETATM    5  C   UNL     1       8.974 -12.281  -7.731  1.00  0.00     0.110 C 
BRANCH   5   6
HETATM    6  C   UNL     1       9.285 -13.777  -7.898  1.00  0.00     0.010 C 
BRANCH   6   7
HETATM    7  C   UNL     1      10.787 -14.045  -7.746  1.00  0.00     0.001 C 
BRANCH   7   8
HETATM    8  C   UNL     1      11.365 -14.671  -9.021  1.00  0.00     0.000 C 
BRANCH   8   9
HETATM    9  C   UNL     1      12.070 -13.616  -9.882  1.00  0.00     0.000 C 
BRANCH   9  10
HETATM   10  C   UNL     1      11.789 -13.842 -11.372  1.00  0.00     0.000 C 
BRANCH  10  11
HETATM   11  C   UNL     1      10.818 -15.010 -11.579  1.00  0.00     0.000 C 
BRANCH  11  12
HETATM   12  C   UNL     1       9.460 -14.513 -12.087  1.00  0.00     0.000 C 
BRANCH  12  13
HETATM   13  C   UNL     1       9.520 -13.023 -12.446  1.00  0.00    -0.000 C 
BRANCH  13  14
HETATM   14  C   UNL     1       8.556 -12.209 -11.575  1.00  0.00    -0.005 C 
HETATM   15  C   UNL     1       7.414 -13.078 -11.057  1.00  0.00     0.005 C 
ENDBRANCH  13  14
ENDBRANCH  12  13
ENDBRANCH  11  12
ENDBRANCH  10  11
ENDBRANCH   9  10
ENDBRANCH   8   9
ENDBRANCH   7   8
ENDBRANCH   6   7
ENDBRANCH   5   6
ENDBRANCH   3   5
ENDBRANCH   1   3
TORSDOF 11
ENDMDL
MODEL 12
REMARK VINA RESULT:      -3.9      8.936     13.795
REMARK  11 active torsions:
REMARK  status: ('A' for Active; 'I' for Inactive)
REMARK    1  A    between atoms: O_1  and  C_14 
REMARK    2  A    between atoms: C_3  and  C_4 
REMARK    3  A    between atoms: C_3  and  C_5 
REMARK    4  A    between atoms: C_4  and  C_6 
REMARK    5  A    between atoms: C_5  and  C_7 
REMARK    6  A    between atoms: C_6  and  C_8 
REMARK    7  A    between atoms: C_7  and  C_9 
REMARK    8  A    between atoms: C_8  and  C_10 
REMARK    9  A    between atoms: C_9  and  C_11 
REMARK   10  A    between atoms: C_10  and  C_12 
REMARK   11  A    between atoms: C_12  and  C_14 
ROOT
HETATM    1  O   UNL     1      -8.051   4.615  -6.686  1.00  0.00    -0.776 OA
HETATM    2  H   UNL     1      -7.199   4.442  -6.261  1.00  0.00     0.167 HD
ENDROOT
BRANCH   1   3
HETATM    3  C   UNL     1      -8.821   3.611  -7.156  1.00  0.00     0.139 C 
HETATM    4  O   UNL     1      -9.042   3.526  -8.356  1.00  0.00    -0.650 OA
BRANCH   3   5
HETATM    5  C   UNL     1      -9.395   2.614  -6.183  1.00  0.00     0.110 C 
BRANCH   5   6
HETATM    6  C   UNL     1     -10.292   3.260  -5.116  1.00  0.00     0.010 C 
BRANCH   6   7
HETATM    7  C   UNL     1      -9.557   3.371  -3.775  1.00  0.00     0.001 C 
BRANCH   7   8
HETATM    8  C   UNL     1     -10.513   3.121  -2.603  1.00  0.00     0.000 C 
BRANCH   8   9
HETATM    9  C   UNL     1      -9.846   3.465  -1.265  1.00  0.00     0.000 C 
BRANCH   9  10
HETATM   10  C   UNL     1      -8.334   3.220  -1.324  1.00  0.00     0.000 C 
BRANCH  10  11
HETATM   11  C   UNL     1      -7.959   1.912  -0.617  1.00  0.00     0.000 C 
BRANCH  11  12
HETATM   12  C   UNL     1      -6.489   1.555  -0.864  1.00  0.00     0.000 C 
BRANCH  12  13
HETATM   13  C   UNL     1      -6.362   0.178  -1.526  1.00  0.00    -0.000 C 
BRANCH  13  14
HETATM   14  C   UNL     1      -6.071  -0.908  -0.485  1.00  0.00    -0.005 C 
HETATM   15  C   UNL     1      -6.837  -2.191  -0.797  1.00  0.00     0.005 C 
ENDBRANCH  13  14
ENDBRANCH  12  13
ENDBRANCH  11  12
ENDBRANCH  10  11
ENDBRANCH   9  10
ENDBRANCH   8   9
ENDBRANCH   7   8
ENDBRANCH   6   7
ENDBRANCH   5   6
ENDBRANCH   3   5
ENDBRANCH   1   3
TORSDOF 11
ENDMDL
MODEL 13
REMARK VINA RESULT:      -3.9     21.071     23.130
REMARK  11 active torsions:
REMARK  status: ('A' for Active; 'I' for Inactive)
REMARK    1  A    between atoms: O_1  and  C_14 
REMARK    2  A    between atoms: C_3  and  C_4 
REMARK    3  A    between atoms: C_3  and  C_5 
REMARK    4  A    between atoms: C_4  and  C_6 
REMARK    5  A    between atoms: C_5  and  C_7 
REMARK    6  A    between atoms: C_6  and  C_8 
REMARK    7  A    between atoms: C_7  and  C_9 
REMARK    8  A    between atoms: C_8  and  C_10 
REMARK    9  A    between atoms: C_9  and  C_11 
REMARK   10  A    between atoms: C_10  and  C_12 
REMARK   11  A    between atoms: C_12  and  C_14 
ROOT
HETATM    1  O   UNL     1      10.686  -0.673 -16.445  1.00  0.00    -0.776 OA
HETATM    2  H   UNL     1      10.409   0.029 -17.051  1.00  0.00     0.167 HD
ENDROOT
BRANCH   1   3
HETATM    3  C   UNL     1      11.965  -1.101 -16.399  1.00  0.00     0.139 C 
HETATM    4  O   UNL     1      12.606  -1.210 -17.435  1.00  0.00    -0.650 OA
BRANCH   3   5
HETATM    5  C   UNL     1      12.575  -1.438 -15.063  1.00  0.00     0.110 C 
BRANCH   5   6
HETATM    6  C   UNL     1      11.560  -1.395 -13.910  1.00  0.00     0.010 C 
BRANCH   6   7
HETATM    7  C   UNL     1      12.233  -0.959 -12.603  1.00  0.00     0.001 C 
BRANCH   7   8
HETATM    8  C   UNL     1      11.857  -1.898 -11.451  1.00  0.00     0.000 C 
BRANCH   8   9
HETATM    9  C   UNL     1      12.377  -1.364 -10.112  1.00  0.00     0.000 C 
BRANCH   9  10
HETATM   10  C   UNL     1      11.525  -1.876  -8.945  1.00  0.00     0.000 C 
BRANCH  10  11
HETATM   11  C   UNL     1      11.488  -0.858  -7.800  1.00  0.00     0.000 C 
BRANCH  11  12
HETATM   12  C   UNL     1      10.396  -1.212  -6.784  1.00  0.00     0.000 C 
BRANCH  12  13
HETATM   13  C   UNL     1       9.919   0.038  -6.032  1.00  0.00    -0.000 C 
BRANCH  13  14
HETATM   14  C   UNL     1       8.885   0.813  -6.857  1.00  0.00    -0.005 C 
HETATM   15  C   UNL     1       8.394   2.047  -6.106  1.00  0.00     0.005 C 
ENDBRANCH  13  14
ENDBRANCH  12  13
ENDBRANCH  11  12
ENDBRANCH  10  11
ENDBRANCH   9  10
ENDBRANCH   8   9
ENDBRANCH   7   8
ENDBRANCH   6   7
ENDBRANCH   5   6
ENDBRANCH   3   5
ENDBRANCH   1   3
TORSDOF 11
ENDMDL
MODEL 14
REMARK VINA RESULT:      -3.9     37.065     38.386
REMARK  11 active torsions:
REMARK  status: ('A' for Active; 'I' for Inactive)
REMARK    1  A    between atoms: O_1  and  C_14 
REMARK    2  A    between atoms: C_3  and  C_4 
REMARK    3  A    between atoms: C_3  and  C_5 
REMARK    4  A    between atoms: C_4  and  C_6 
REMARK    5  A    between atoms: C_5  and  C_7 
REMARK    6  A    between atoms: C_6  and  C_8 
REMARK    7  A    between atoms: C_7  and  C_9 
REMARK    8  A    between atoms: C_8  and  C_10 
REMARK    9  A    between atoms: C_9  and  C_11 
REMARK   10  A    between atoms: C_10  and  C_12 
REMARK   11  A    between atoms: C_12  and  C_14 
ROOT
HETATM    1  O   UNL     1      16.700 -25.915 -14.210  1.00  0.00    -0.776 OA
HETATM    2  H   UNL     1      17.360 -25.876 -14.917  1.00  0.00     0.167 HD
ENDROOT
BRANCH   1   3
HETATM    3  C   UNL     1      15.392 -26.119 -14.477  1.00  0.00     0.139 C 
HETATM    4  O   UNL     1      14.992 -26.060 -15.631  1.00  0.00    -0.650 OA
BRANCH   3   5
HETATM    5  C   UNL     1      14.452 -26.417 -13.338  1.00  0.00     0.110 C 
BRANCH   5   6
HETATM    6  C   UNL     1      14.507 -25.363 -12.221  1.00  0.00     0.010 C 
BRANCH   6   7
HETATM    7  C   UNL     1      13.378 -24.339 -12.376  1.00  0.00     0.001 C 
BRANCH   7   8
HETATM    8  C   UNL     1      12.690 -24.071 -11.032  1.00  0.00     0.000 C 
BRANCH   8   9
HETATM    9  C   UNL     1      11.965 -25.323 -10.525  1.00  0.00     0.000 C 
BRANCH   9  10
HETATM   10  C   UNL     1      12.215 -25.537  -9.027  1.00  0.00     0.000 C 
BRANCH  10  11
HETATM   11  C   UNL     1      13.062 -26.791  -8.783  1.00  0.00     0.000 C 
BRANCH  11  12
HETATM   12  C   UNL     1      14.555 -26.448  -8.748  1.00  0.00     0.000 C 
BRANCH  12  13
HETATM   13  C   UNL     1      14.845 -25.360  -7.706  1.00  0.00    -0.000 C 
BRANCH  13  14
HETATM   14  C   UNL     1      14.776 -25.929  -6.284  1.00  0.00    -0.005 C 
HETATM   15  C   UNL     1      13.845 -25.099  -5.404  1.00  0.00     0.005 C 
ENDBRANCH  13  14
ENDBRANCH  12  13
ENDBRANCH  11  12
ENDBRANCH  10  11
ENDBRANCH   9  10
ENDBRANCH   8   9
ENDBRANCH   7   8
ENDBRANCH   6   7
ENDBRANCH   5   6
ENDBRANCH   3   5
ENDBRANCH   1   3
TORSDOF 11
ENDMDL
MODEL 15
REMARK VINA RESULT:      -3.9     37.232     38.526
REMARK  11 active torsions:
REMARK  status: ('A' for Active; 'I' for Inactive)
REMARK    1  A    between atoms: O_1  and  C_14 
REMARK    2  A    between atoms: C_3  and  C_4 
REMARK    3  A    between atoms: C_3  and  C_5 
REMARK    4  A    between atoms: C_4  and  C_6 
REMARK    5  A    between atoms: C_5  and  C_7 
REMARK    6  A    between atoms: C_6  and  C_8 
REMARK    7  A    between atoms: C_7  and  C_9 
REMARK    8  A    between atoms: C_8  and  C_10 
REMARK    9  A    between atoms: C_9  and  C_11 
REMARK   10  A    between atoms: C_10  and  C_12 
REMARK   11  A    between atoms: C_12  and  C_14 
ROOT
HETATM    1  O   UNL     1      16.307 -25.332 -13.450  1.00  0.00    -0.776 OA
HETATM    2  H   UNL     1      16.539 -24.774 -12.693  1.00  0.00     0.167 HD
ENDROOT
BRANCH   1   3
HETATM    3  C   UNL     1      15.037 -25.415 -13.901  1.00  0.00     0.139 C 
HETATM    4  O   UNL     1      14.825 -25.507 -15.102  1.00  0.00    -0.650 OA
BRANCH   3   5
HETATM    5  C   UNL     1      13.906 -25.393 -12.906  1.00  0.00     0.110 C 
BRANCH   5   6
HETATM    6  C   UNL     1      14.172 -26.267 -11.671  1.00  0.00     0.010 C 
BRANCH   6   7
HETATM    7  C   UNL     1      14.484 -25.403 -10.444  1.00  0.00     0.001 C 
BRANCH   7   8
HETATM    8  C   UNL     1      15.304 -26.189  -9.413  1.00  0.00     0.000 C 
BRANCH   8   9
HETATM    9  C   UNL     1      15.398 -25.426  -8.087  1.00  0.00     0.000 C 
BRANCH   9  10
HETATM   10  C   UNL     1      14.004 -25.111  -7.531  1.00  0.00     0.000 C 
BRANCH  10  11
HETATM   11  C   UNL     1      13.503 -26.243  -6.627  1.00  0.00     0.000 C 
BRANCH  11  12
HETATM   12  C   UNL     1      12.083 -26.669  -7.014  1.00  0.00     0.000 C 
BRANCH  12  13
HETATM   13  C   UNL     1      12.102 -27.962  -7.839  1.00  0.00    -0.000 C 
BRANCH  13  14
HETATM   14  C   UNL     1      11.725 -27.688  -9.299  1.00  0.00    -0.005 C 
HETATM   15  C   UNL     1      10.966 -26.371  -9.434  1.00  0.00     0.005 C 
ENDBRANCH  13  14
ENDBRANCH  12  13
ENDBRANCH  11  12
ENDBRANCH  10  11
ENDBRANCH   9  10
ENDBRANCH   8   9
ENDBRANCH   7   8
ENDBRANCH   6   7
ENDBRANCH   5   6
ENDBRANCH   3   5
ENDBRANCH   1   3
TORSDOF 11
ENDMDL
MODEL 16
REMARK VINA RESULT:      -3.8     24.926     26.263
REMARK  11 active torsions:
REMARK  status: ('A' for Active; 'I' for Inactive)
REMARK    1  A    between atoms: O_1  and  C_14 
REMARK    2  A    between atoms: C_3  and  C_4 
REMARK    3  A    between atoms: C_3  and  C_5 
REMARK    4  A    between atoms: C_4  and  C_6 
REMARK    5  A    between atoms: C_5  and  C_7 
REMARK    6  A    between atoms: C_6  and  C_8 
REMARK    7  A    between atoms: C_7  and  C_9 
REMARK    8  A    between atoms: C_8  and  C_10 
REMARK    9  A    between atoms: C_9  and  C_11 
REMARK   10  A    between atoms: C_10  and  C_12 
REMARK   11  A    between atoms: C_12  and  C_14 
ROOT
HETATM    1  O   UNL     1       8.068 -12.797 -17.772  1.00  0.00    -0.776 OA
HETATM    2  H   UNL     1       8.874 -13.012 -18.263  1.00  0.00     0.167 HD
ENDROOT
BRANCH   1   3
HETATM    3  C   UNL     1       8.088 -12.603 -16.436  1.00  0.00     0.139 C 
HETATM    4  O   UNL     1       7.039 -12.430 -15.832  1.00  0.00    -0.650 OA
BRANCH   3   5
HETATM    5  C   UNL     1       9.413 -12.603 -15.718  1.00  0.00     0.110 C 
BRANCH   5   6
HETATM    6  C   UNL     1       9.391 -11.790 -14.414  1.00  0.00     0.010 C 
BRANCH   6   7
HETATM    7  C   UNL     1       9.388 -12.714 -13.191  1.00  0.00     0.001 C 
BRANCH   7   8
HETATM    8  C   UNL     1      10.412 -13.844 -13.354  1.00  0.00     0.000 C 
BRANCH   8   9
HETATM    9  C   UNL     1      11.207 -14.058 -12.060  1.00  0.00     0.000 C 
BRANCH   9  10
HETATM   10  C   UNL     1      10.889 -15.421 -11.436  1.00  0.00     0.000 C 
BRANCH  10  11
HETATM   11  C   UNL     1      10.244 -15.258 -10.054  1.00  0.00     0.000 C 
BRANCH  11  12
HETATM   12  C   UNL     1       8.781 -14.820 -10.178  1.00  0.00     0.000 C 
BRANCH  12  13
HETATM   13  C   UNL     1       8.481 -13.638  -9.248  1.00  0.00    -0.000 C 
BRANCH  13  14
HETATM   14  C   UNL     1       9.706 -12.728  -9.103  1.00  0.00    -0.005 C 
HETATM   15  C   UNL     1       9.473 -11.378  -9.774  1.00  0.00     0.005 C 
ENDBRANCH  13  14
ENDBRANCH  12  13
ENDBRANCH  11  12
ENDBRANCH  10  11
ENDBRANCH   9  10
ENDBRANCH   8   9
ENDBRANCH   7   8
ENDBRANCH   6   7
ENDBRANCH   5   6
ENDBRANCH   3   5
ENDBRANCH   1   3
TORSDOF 11
ENDMDL
MODEL 17
REMARK VINA RESULT:      -3.8     25.670     26.998
REMARK  11 active torsions:
REMARK  status: ('A' for Active; 'I' for Inactive)
REMARK    1  A    between atoms: O_1  and  C_14 
REMARK    2  A    between atoms: C_3  and  C_4 
REMARK    3  A    between atoms: C_3  and  C_5 
REMARK    4  A    between atoms: C_4  and  C_6 
REMARK    5  A    between atoms: C_5  and  C_7 
REMARK    6  A    between atoms: C_6  and  C_8 
REMARK    7  A    between atoms: C_7  and  C_9 
REMARK    8  A    between atoms: C_8  and  C_10 
REMARK    9  A    between atoms: C_9  and  C_11 
REMARK   10  A    between atoms: C_10  and  C_12 
REMARK   11  A    between atoms: C_12  and  C_14 
ROOT
HETATM    1  O   UNL     1      11.964 -15.490 -14.928  1.00  0.00    -0.776 OA
HETATM    2  H   UNL     1      12.685 -15.945 -15.386  1.00  0.00     0.167 HD
ENDROOT
BRANCH   1   3
HETATM    3  C   UNL     1      11.709 -14.182 -15.140  1.00  0.00     0.139 C 
HETATM    4  O   UNL     1      12.635 -13.391 -15.242  1.00  0.00    -0.650 OA
BRANCH   3   5
HETATM    5  C   UNL     1      10.276 -13.726 -15.247  1.00  0.00     0.110 C 
BRANCH   5   6
HETATM    6  C   UNL     1       9.948 -12.550 -14.315  1.00  0.00     0.010 C 
BRANCH   6   7
HETATM    7  C   UNL     1       9.847 -13.015 -12.858  1.00  0.00     0.001 C 
BRANCH   7   8
HETATM    8  C   UNL     1       8.396 -13.340 -12.483  1.00  0.00     0.000 C 
BRANCH   8   9
HETATM    9  C   UNL     1       7.930 -12.490 -11.296  1.00  0.00     0.000 C 
BRANCH   9  10
HETATM   10  C   UNL     1       8.998 -11.464 -10.899  1.00  0.00     0.000 C 
BRANCH  10  11
HETATM   11  C   UNL     1       9.399 -11.627  -9.428  1.00  0.00     0.000 C 
BRANCH  11  12
HETATM   12  C   UNL     1       9.200 -13.073  -8.960  1.00  0.00     0.000 C 
BRANCH  12  13
HETATM   13  C   UNL     1      10.508 -13.659  -8.414  1.00  0.00    -0.000 C 
BRANCH  13  14
HETATM   14  C   UNL     1      11.241 -14.466  -9.492  1.00  0.00    -0.005 C 
HETATM   15  C   UNL     1      12.438 -13.694 -10.039  1.00  0.00     0.005 C 
ENDBRANCH  13  14
ENDBRANCH  12  13
ENDBRANCH  11  12
ENDBRANCH  10  11
ENDBRANCH   9  10
ENDBRANCH   8   9
ENDBRANCH   7   8
ENDBRANCH   6   7
ENDBRANCH   5   6
ENDBRANCH   3   5
ENDBRANCH   1   3
TORSDOF 11
ENDMDL
MODEL 18
REMARK VINA RESULT:      -3.7     25.122     26.371
REMARK  11 active torsions:
REMARK  status: ('A' for Active; 'I' for Inactive)
REMARK    1  A    between atoms: O_1  and  C_14 
REMARK    2  A    between atoms: C_3  and  C_4 
REMARK    3  A    between atoms: C_3  and  C_5 
REMARK    4  A    between atoms: C_4  and  C_6 
REMARK    5  A    between atoms: C_5  and  C_7 
REMARK    6  A    between atoms: C_6  and  C_8 
REMARK    7  A    between atoms: C_7  and  C_9 
REMARK    8  A    between atoms: C_8  and  C_10 
REMARK    9  A    between atoms: C_9  and  C_11 
REMARK   10  A    between atoms: C_10  and  C_12 
REMARK   11  A    between atoms: C_12  and  C_14 
ROOT
HETATM    1  O   UNL     1       9.594 -10.529  -4.755  1.00  0.00    -0.776 OA
HETATM    2  H   UNL     1       9.547 -10.468  -3.790  1.00  0.00     0.167 HD
ENDROOT
BRANCH   1   3
HETATM    3  C   UNL     1       9.553 -11.720  -5.390  1.00  0.00     0.139 C 
HETATM    4  O   UNL     1       8.940 -11.826  -6.442  1.00  0.00    -0.650 OA
BRANCH   3   5
HETATM    5  C   UNL     1      10.269 -12.897  -4.780  1.00  0.00     0.110 C 
BRANCH   5   6
HETATM    6  C   UNL     1      11.303 -13.529  -5.724  1.00  0.00     0.010 C 
BRANCH   6   7
HETATM    7  C   UNL     1      10.783 -14.852  -6.300  1.00  0.00     0.001 C 
BRANCH   7   8
HETATM    8  C   UNL     1      10.593 -14.753  -7.819  1.00  0.00     0.000 C 
BRANCH   8   9
HETATM    9  C   UNL     1      11.763 -14.009  -8.474  1.00  0.00     0.000 C 
BRANCH   9  10
HETATM   10  C   UNL     1      11.299 -13.234  -9.713  1.00  0.00     0.000 C 
BRANCH  10  11
HETATM   11  C   UNL     1       9.799 -12.927  -9.641  1.00  0.00     0.000 C 
BRANCH  11  12
HETATM   12  C   UNL     1       9.529 -11.441  -9.904  1.00  0.00     0.000 C 
BRANCH  12  13
HETATM   13  C   UNL     1       8.754 -11.246 -11.213  1.00  0.00    -0.000 C 
BRANCH  13  14
HETATM   14  C   UNL     1       8.367 -12.595 -11.829  1.00  0.00    -0.005 C 
HETATM   15  C   UNL     1       8.791 -12.675 -13.293  1.00  0.00     0.005 C 
ENDBRANCH  13  14
ENDBRANCH  12  13
ENDBRANCH  11  12
ENDBRANCH  10  11
ENDBRANCH   9  10
ENDBRANCH   8   9
ENDBRANCH   7   8
ENDBRANCH   6   7
ENDBRANCH   5   6
ENDBRANCH   3   5
ENDBRANCH   1   3
TORSDOF 11
ENDMDL
MODEL 19
REMARK VINA RESULT:      -3.7     37.639     39.074
REMARK  11 active torsions:
REMARK  status: ('A' for Active; 'I' for Inactive)
REMARK    1  A    between atoms: O_1  and  C_14 
REMARK    2  A    between atoms: C_3  and  C_4 
REMARK    3  A    between atoms: C_3  and  C_5 
REMARK    4  A    between atoms: C_4  and  C_6 
REMARK    5  A    between atoms: C_5  and  C_7 
REMARK    6  A    between atoms: C_6  and  C_8 
REMARK    7  A    between atoms: C_7  and  C_9 
REMARK    8  A    between atoms: C_8  and  C_10 
REMARK    9  A    between atoms: C_9  and  C_11 
REMARK   10  A    between atoms: C_10  and  C_12 
REMARK   11  A    between atoms: C_12  and  C_14 
ROOT
HETATM    1  O   UNL     1      16.682 -25.876  -9.316  1.00  0.00    -0.776 OA
HETATM    2  H   UNL     1      17.211 -26.587  -9.705  1.00  0.00     0.167 HD
ENDROOT
BRANCH   1   3
HETATM    3  C   UNL     1      15.334 -25.931  -9.294  1.00  0.00     0.139 C 
HETATM    4  O   UNL     1      14.698 -25.646 -10.298  1.00  0.00    -0.650 OA
BRANCH   3   5
HETATM    5  C   UNL     1      14.642 -26.344  -8.021  1.00  0.00     0.110 C 
BRANCH   5   6
HETATM    6  C   UNL     1      14.008 -25.164  -7.268  1.00  0.00     0.010 C 
BRANCH   6   7
HETATM    7  C   UNL     1      12.530 -25.435  -6.966  1.00  0.00     0.001 C 
BRANCH   7   8
HETATM    8  C   UNL     1      12.240 -26.941  -6.949  1.00  0.00     0.000 C 
BRANCH   8   9
HETATM    9  C   UNL     1      11.573 -27.359  -5.633  1.00  0.00     0.000 C 
BRANCH   9  10
HETATM   10  C   UNL     1      11.379 -26.153  -4.706  1.00  0.00     0.000 C 
BRANCH  10  11
HETATM   11  C   UNL     1      11.858 -26.468  -3.284  1.00  0.00     0.000 C 
BRANCH  11  12
HETATM   12  C   UNL     1      13.179 -27.246  -3.308  1.00  0.00     0.000 C 
BRANCH  12  13
HETATM   13  C   UNL     1      14.352 -26.326  -3.669  1.00  0.00    -0.000 C 
BRANCH  13  14
HETATM   14  C   UNL     1      14.262 -24.997  -2.909  1.00  0.00    -0.005 C 
HETATM   15  C   UNL     1      14.252 -23.812  -3.870  1.00  0.00     0.005 C 
ENDBRANCH  13  14
ENDBRANCH  12  13
ENDBRANCH  11  12
ENDBRANCH  10  11
ENDBRANCH   9  10
ENDBRANCH   8   9
ENDBRANCH   7   8
ENDBRANCH   6   7
ENDBRANCH   5   6
ENDBRANCH   3   5
ENDBRANCH   1   3
TORSDOF 11
ENDMDL
MODEL 20
REMARK VINA RESULT:      -3.7     25.549     27.589
REMARK  11 active torsions:
REMARK  status: ('A' for Active; 'I' for Inactive)
REMARK    1  A    between atoms: O_1  and  C_14 
REMARK    2  A    between atoms: C_3  and  C_4 
REMARK    3  A    between atoms: C_3  and  C_5 
REMARK    4  A    between atoms: C_4  and  C_6 
REMARK    5  A    between atoms: C_5  and  C_7 
REMARK    6  A    between atoms: C_6  and  C_8 
REMARK    7  A    between atoms: C_7  and  C_9 
REMARK    8  A    between atoms: C_8  and  C_10 
REMARK    9  A    between atoms: C_9  and  C_11 
REMARK   10  A    between atoms: C_10  and  C_12 
REMARK   11  A    between atoms: C_12  and  C_14 
ROOT
HETATM    1  O   UNL     1       7.705 -12.665 -10.079  1.00  0.00    -0.776 OA
HETATM    2  H   UNL     1       6.864 -12.539  -9.617  1.00  0.00     0.167 HD
ENDROOT
BRANCH   1   3
HETATM    3  C   UNL     1       8.867 -12.204  -9.568  1.00  0.00     0.139 C 
HETATM    4  O   UNL     1       9.519 -11.380 -10.192  1.00  0.00    -0.650 OA
BRANCH   3   5
HETATM    5  C   UNL     1       9.333 -12.722  -8.232  1.00  0.00     0.110 C 
BRANCH   5   6
HETATM    6  C   UNL     1       8.483 -13.890  -7.708  1.00  0.00     0.010 C 
BRANCH   6   7
HETATM    7  C   UNL     1       7.706 -13.484  -6.451  1.00  0.00     0.001 C 
BRANCH   7   8
HETATM    8  C   UNL     1       7.547 -14.672  -5.495  1.00  0.00     0.000 C 
BRANCH   8   9
HETATM    9  C   UNL     1       8.000 -14.303  -4.078  1.00  0.00     0.000 C 
BRANCH   9  10
HETATM   10  C   UNL     1       8.807 -13.000  -4.078  1.00  0.00     0.000 C 
BRANCH  10  11
HETATM   11  C   UNL     1      10.289 -13.268  -3.791  1.00  0.00     0.000 C 
BRANCH  11  12
HETATM   12  C   UNL     1      11.159 -12.902  -4.998  1.00  0.00     0.000 C 
BRANCH  12  13
HETATM   13  C   UNL     1      12.098 -14.056  -5.370  1.00  0.00    -0.000 C 
BRANCH  13  14
HETATM   14  C   UNL     1      11.484 -15.408  -4.989  1.00  0.00    -0.005 C 
HETATM   15  C   UNL     1      10.963 -16.144  -6.221  1.00  0.00     0.005 C 
ENDBRANCH  13  14
ENDBRANCH  12  13
ENDBRANCH  11  12
ENDBRANCH  10  11
ENDBRANCH   9  10
ENDBRANCH   8   9
ENDBRANCH   7   8
ENDBRANCH   6   7
ENDBRANCH   5   6
ENDBRANCH   3   5
ENDBRANCH   1   3
TORSDOF 11
ENDMDL
