MODEL 1
REMARK VINA RESULT:      -7.9      0.000      0.000
REMARK  5 active torsions:
REMARK  status: ('A' for Active; 'I' for Inactive)
REMARK    1  A    between atoms: S_3  and  O_4 
REMARK    2  A    between atoms: S_3  and  C_15 
REMARK    3  A    between atoms: N_9  and  C_30 
REMARK    4  A    between atoms: C_11  and  C_13 
REMARK    5  A    between atoms: C_18  and  C_25 
ROOT
HETATM    1  S   UNL     1       8.855 -13.290  -8.899  1.00  0.00    -0.068 SA
HETATM    2  N   UNL     1      10.299 -15.211  -9.671  1.00  0.00    -0.344 N 
HETATM    3  C   UNL     1      10.242 -15.263  -8.299  1.00  0.00     0.053 A 
HETATM    4  C   UNL     1       9.594 -14.139 -10.166  1.00  0.00     0.087 A 
HETATM    5  C   UNL     1       9.480 -14.270  -7.696  1.00  0.00     0.057 A 
HETATM    6  C   UNL     1       9.308 -14.179  -6.307  1.00  0.00     0.097 A 
HETATM    7  C   UNL     1       9.947 -15.154  -5.498  1.00  0.00    -0.037 A 
HETATM    8  C   UNL     1      10.866 -16.230  -7.496  1.00  0.00     0.031 A 
HETATM    9  C   UNL     1      10.995 -16.249 -10.445  1.00  0.00     0.157 C 
HETATM   10  C   UNL     1      10.719 -16.169  -6.106  1.00  0.00     0.011 A 
HETATM   11  C   UNL     1       9.822 -15.135  -3.998  1.00  0.00     0.050 C 
ENDROOT
BRANCH   4  12
HETATM   12  C   UNL     1       9.466 -13.681 -11.586  1.00  0.00    -0.001 A 
HETATM   13  C   UNL     1       9.698 -14.534 -12.689  1.00  0.00     0.035 A 
HETATM   14  C   UNL     1       9.583 -14.019 -13.977  1.00  0.00     0.034 A 
HETATM   15  S   UNL     1       9.795 -14.821 -15.425  1.00  0.00    -0.069 SA
HETATM   16  C   UNL     1       9.260 -12.700 -14.232  1.00  0.00     0.052 A 
HETATM   17  C   UNL     1       9.484 -13.442 -16.368  1.00  0.00     0.087 A 
HETATM   18  N   UNL     1       9.182 -12.367 -15.562  1.00  0.00    -0.344 N 
HETATM   19  C   UNL     1       8.762 -11.025 -15.988  1.00  0.00     0.157 C 
HETATM   20  C   UNL     1       9.037 -11.832 -13.155  1.00  0.00     0.032 A 
HETATM   21  C   UNL     1       9.153 -12.322 -11.843  1.00  0.00     0.016 A 
BRANCH  17  22
HETATM   22  C   UNL     1       9.590 -13.485 -17.861  1.00  0.00    -0.002 A 
HETATM   23  C   UNL     1       8.476 -13.370 -18.712  1.00  0.00     0.016 A 
HETATM   24  C   UNL     1       8.624 -13.391 -20.101  1.00  0.00     0.030 A 
HETATM   25  C   UNL     1       9.895 -13.520 -20.701  1.00  0.00     0.029 A 
HETATM   26  C   UNL     1      11.012 -13.613 -19.845  1.00  0.00     0.030 A 
HETATM   27  C   UNL     1      10.861 -13.588 -18.456  1.00  0.00     0.016 A 
BRANCH  25  28
HETATM   28  N   UNL     1      10.048 -13.542 -22.137  1.00  0.00    -0.390 N 
HETATM   29  C   UNL     1       8.970 -13.085 -23.006  1.00  0.00     0.149 C 
HETATM   30  C   UNL     1      11.282 -14.023 -22.745  1.00  0.00     0.149 C 
ENDBRANCH  25  28
ENDBRANCH  17  22
ENDBRANCH   4  12
BRANCH   6  31
HETATM   31  S   UNL     1       8.303 -12.857  -5.591  1.00  0.00     0.131 S 
HETATM   32  O   UNL     1       8.790 -11.457  -6.001  1.00  0.00    -0.598 OA
HETATM   33  O   UNL     1       6.882 -12.855  -6.174  1.00  0.00    -0.598 OA
BRANCH  31  34
HETATM   34  O   UNL     1       8.063 -12.770  -3.892  1.00  0.00    -0.292 OA
HETATM   35  H   UNL     1       7.980 -13.712  -3.595  1.00  0.00     0.232 HD
ENDBRANCH  31  34
ENDBRANCH   6  31
TORSDOF 5
ENDMDL
MODEL 2
REMARK VINA RESULT:      -7.7      4.944     11.698
REMARK  5 active torsions:
REMARK  status: ('A' for Active; 'I' for Inactive)
REMARK    1  A    between atoms: S_3  and  O_4 
REMARK    2  A    between atoms: S_3  and  C_15 
REMARK    3  A    between atoms: N_9  and  C_30 
REMARK    4  A    between atoms: C_11  and  C_13 
REMARK    5  A    between atoms: C_18  and  C_25 
ROOT
HETATM    1  S   UNL     1       9.285 -13.360 -17.516  1.00  0.00    -0.068 SA
HETATM    2  N   UNL     1      10.402 -15.605 -17.225  1.00  0.00    -0.344 N 
HETATM    3  C   UNL     1      10.449 -15.291 -18.562  1.00  0.00     0.053 A 
HETATM    4  C   UNL     1       9.753 -14.633 -16.500  1.00  0.00     0.087 A 
HETATM    5  C   UNL     1       9.874 -14.074 -18.909  1.00  0.00     0.057 A 
HETATM    6  C   UNL     1       9.842 -13.595 -20.226  1.00  0.00     0.097 A 
HETATM    7  C   UNL     1      10.427 -14.401 -21.236  1.00  0.00    -0.037 A 
HETATM    8  C   UNL     1      11.033 -16.082 -19.562  1.00  0.00     0.031 A 
HETATM    9  C   UNL     1      11.049 -16.817 -16.704  1.00  0.00     0.157 C 
HETATM   10  C   UNL     1      11.017 -15.637 -20.889  1.00  0.00     0.011 A 
HETATM   11  C   UNL     1      10.437 -13.970 -22.679  1.00  0.00     0.050 C 
ENDROOT
BRANCH   4  12
HETATM   12  C   UNL     1       9.422 -14.623 -15.040  1.00  0.00    -0.001 A 
HETATM   13  C   UNL     1      10.195 -13.924 -14.084  1.00  0.00     0.035 A 
HETATM   14  C   UNL     1       9.832 -13.989 -12.743  1.00  0.00     0.034 A 
HETATM   15  S   UNL     1      10.571 -13.250 -11.443  1.00  0.00    -0.069 SA
HETATM   16  C   UNL     1       8.748 -14.719 -12.293  1.00  0.00     0.052 A 
HETATM   17  C   UNL     1       9.488 -13.901 -10.307  1.00  0.00     0.087 A 
HETATM   18  N   UNL     1       8.531 -14.664 -10.938  1.00  0.00    -0.344 N 
HETATM   19  C   UNL     1       7.366 -15.317 -10.326  1.00  0.00     0.157 C 
HETATM   20  C   UNL     1       7.973 -15.430 -13.220  1.00  0.00     0.032 A 
HETATM   21  C   UNL     1       8.320 -15.388 -14.580  1.00  0.00     0.016 A 
BRANCH  17  22
HETATM   22  C   UNL     1       9.660 -13.651  -8.841  1.00  0.00    -0.002 A 
HETATM   23  C   UNL     1       8.962 -12.648  -8.146  1.00  0.00     0.016 A 
HETATM   24  C   UNL     1       9.136 -12.465  -6.772  1.00  0.00     0.030 A 
HETATM   25  C   UNL     1      10.011 -13.287  -6.029  1.00  0.00     0.029 A 
HETATM   26  C   UNL     1      10.693 -14.306  -6.725  1.00  0.00     0.030 A 
HETATM   27  C   UNL     1      10.514 -14.488  -8.098  1.00  0.00     0.016 A 
BRANCH  25  28
HETATM   28  N   UNL     1      10.192 -13.099  -4.609  1.00  0.00    -0.390 N 
HETATM   29  C   UNL     1      11.242 -13.812  -3.892  1.00  0.00     0.149 C 
HETATM   30  C   UNL     1       9.327 -12.193  -3.864  1.00  0.00     0.149 C 
ENDBRANCH  25  28
ENDBRANCH  17  22
ENDBRANCH   4  12
BRANCH   6  31
HETATM   31  S   UNL     1       9.074 -12.002 -20.605  1.00  0.00     0.131 S 
HETATM   32  O   UNL     1       9.176 -11.636 -22.094  1.00  0.00    -0.598 OA
HETATM   33  O   UNL     1       7.550 -12.056 -20.420  1.00  0.00    -0.598 OA
BRANCH  31  34
HETATM   34  O   UNL     1       9.552 -10.583 -19.760  1.00  0.00    -0.292 OA
HETATM   35  H   UNL     1      10.543 -10.618 -19.738  1.00  0.00     0.232 HD
ENDBRANCH  31  34
ENDBRANCH   6  31
TORSDOF 5
ENDMDL
MODEL 3
REMARK VINA RESULT:      -7.6      1.770      2.377
REMARK  5 active torsions:
REMARK  status: ('A' for Active; 'I' for Inactive)
REMARK    1  A    between atoms: S_3  and  O_4 
REMARK    2  A    between atoms: S_3  and  C_15 
REMARK    3  A    between atoms: N_9  and  C_30 
REMARK    4  A    between atoms: C_11  and  C_13 
REMARK    5  A    between atoms: C_18  and  C_25 
ROOT
HETATM    1  S   UNL     1       9.588 -13.685  -7.495  1.00  0.00    -0.068 SA
HETATM    2  N   UNL     1      10.696 -15.916  -7.908  1.00  0.00    -0.344 N 
HETATM    3  C   UNL     1      10.496 -15.798  -6.553  1.00  0.00     0.053 A 
HETATM    4  C   UNL     1      10.265 -14.797  -8.581  1.00  0.00     0.087 A 
HETATM    5  C   UNL     1       9.889 -14.619  -6.141  1.00  0.00     0.057 A 
HETATM    6  C   UNL     1       9.604 -14.338  -4.796  1.00  0.00     0.097 A 
HETATM    7  C   UNL     1       9.958 -15.314  -3.829  1.00  0.00    -0.037 A 
HETATM    8  C   UNL     1      10.838 -16.764  -5.595  1.00  0.00     0.031 A 
HETATM    9  C   UNL     1      11.245 -17.146  -8.493  1.00  0.00     0.157 C 
HETATM   10  C   UNL     1      10.571 -16.517  -4.244  1.00  0.00     0.011 A 
HETATM   11  C   UNL     1       9.694 -15.099  -2.363  1.00  0.00     0.050 C 
ENDROOT
BRANCH   4  12
HETATM   12  C   UNL     1      10.368 -14.490 -10.043  1.00  0.00    -0.001 A 
HETATM   13  C   UNL     1       9.251 -14.512 -10.910  1.00  0.00     0.035 A 
HETATM   14  C   UNL     1       9.440 -14.239 -12.262  1.00  0.00     0.034 A 
HETATM   15  S   UNL     1       8.291 -14.194 -13.470  1.00  0.00    -0.069 SA
HETATM   16  C   UNL     1      10.679 -13.955 -12.805  1.00  0.00     0.052 A 
HETATM   17  C   UNL     1       9.416 -13.826 -14.688  1.00  0.00     0.087 A 
HETATM   18  N   UNL     1      10.679 -13.703 -14.154  1.00  0.00    -0.344 N 
HETATM   19  C   UNL     1      11.906 -13.300 -14.854  1.00  0.00     0.157 C 
HETATM   20  C   UNL     1      11.803 -13.939 -11.967  1.00  0.00     0.032 A 
HETATM   21  C   UNL     1      11.643 -14.217 -10.599  1.00  0.00     0.016 A 
BRANCH  17  22
HETATM   22  C   UNL     1       8.996 -13.711 -16.121  1.00  0.00    -0.002 A 
HETATM   23  C   UNL     1       9.144 -12.531 -16.871  1.00  0.00     0.016 A 
HETATM   24  C   UNL     1       8.760 -12.475 -18.214  1.00  0.00     0.030 A 
HETATM   25  C   UNL     1       8.220 -13.603 -18.868  1.00  0.00     0.029 A 
HETATM   26  C   UNL     1       8.093 -14.791 -18.119  1.00  0.00     0.030 A 
HETATM   27  C   UNL     1       8.481 -14.844 -16.778  1.00  0.00     0.016 A 
BRANCH  25  28
HETATM   28  N   UNL     1       7.823 -13.546 -20.256  1.00  0.00    -0.390 N 
HETATM   29  C   UNL     1       7.996 -12.322 -21.028  1.00  0.00     0.149 C 
HETATM   30  C   UNL     1       7.240 -14.710 -20.910  1.00  0.00     0.149 C 
ENDBRANCH  25  28
ENDBRANCH  17  22
ENDBRANCH   4  12
BRANCH   6  31
HETATM   31  S   UNL     1       8.813 -12.780  -4.331  1.00  0.00     0.131 S 
HETATM   32  O   UNL     1       9.752 -11.572  -4.487  1.00  0.00    -0.598 OA
HETATM   33  O   UNL     1       7.690 -12.407  -5.311  1.00  0.00    -0.598 OA
BRANCH  31  34
HETATM   34  O   UNL     1       8.098 -12.596  -2.779  1.00  0.00    -0.292 OA
HETATM   35  H   UNL     1       8.235 -13.468  -2.328  1.00  0.00     0.232 HD
ENDBRANCH  31  34
ENDBRANCH   6  31
TORSDOF 5
ENDMDL
MODEL 4
REMARK VINA RESULT:      -7.6      5.081     11.721
REMARK  5 active torsions:
REMARK  status: ('A' for Active; 'I' for Inactive)
REMARK    1  A    between atoms: S_3  and  O_4 
REMARK    2  A    between atoms: S_3  and  C_15 
REMARK    3  A    between atoms: N_9  and  C_30 
REMARK    4  A    between atoms: C_11  and  C_13 
REMARK    5  A    between atoms: C_18  and  C_25 
ROOT
HETATM    1  S   UNL     1       9.154 -13.075 -17.858  1.00  0.00    -0.068 SA
HETATM    2  N   UNL     1      10.273 -15.238 -17.194  1.00  0.00    -0.344 N 
HETATM    3  C   UNL     1      10.089 -15.270 -18.555  1.00  0.00     0.053 A 
HETATM    4  C   UNL     1       9.775 -14.080 -16.643  1.00  0.00     0.087 A 
HETATM    5  C   UNL     1       9.480 -14.147 -19.100  1.00  0.00     0.057 A 
HETATM    6  C   UNL     1       9.223 -14.009 -20.472  1.00  0.00     0.097 A 
HETATM    7  C   UNL     1       9.611 -15.074 -21.326  1.00  0.00    -0.037 A 
HETATM    8  C   UNL     1      10.478 -16.317 -19.403  1.00  0.00     0.031 A 
HETATM    9  C   UNL     1      10.985 -16.317 -16.495  1.00  0.00     0.157 C 
HETATM   10  C   UNL     1      10.235 -16.216 -20.777  1.00  0.00     0.011 A 
HETATM   11  C   UNL     1       9.373 -15.017 -22.811  1.00  0.00     0.050 C 
ENDROOT
BRANCH   4  12
HETATM   12  C   UNL     1       9.705 -13.688 -15.200  1.00  0.00    -0.001 A 
HETATM   13  C   UNL     1      10.047 -14.570 -14.149  1.00  0.00     0.035 A 
HETATM   14  C   UNL     1       9.929 -14.132 -12.834  1.00  0.00     0.034 A 
HETATM   15  S   UNL     1      10.277 -14.975 -11.437  1.00  0.00    -0.069 SA
HETATM   16  C   UNL     1       9.480 -12.869 -12.500  1.00  0.00     0.052 A 
HETATM   17  C   UNL     1       9.823 -13.697 -10.413  1.00  0.00     0.087 A 
HETATM   18  N   UNL     1       9.434 -12.604 -11.154  1.00  0.00    -0.344 N 
HETATM   19  C   UNL     1       9.061 -11.274 -10.651  1.00  0.00     0.157 C 
HETATM   20  C   UNL     1       9.124 -11.980 -13.524  1.00  0.00     0.032 A 
HETATM   21  C   UNL     1       9.227 -12.397 -14.861  1.00  0.00     0.016 A 
BRANCH  17  22
HETATM   22  C   UNL     1       9.843 -13.853  -8.924  1.00  0.00    -0.002 A 
HETATM   23  C   UNL     1      11.030 -13.873  -8.170  1.00  0.00     0.016 A 
HETATM   24  C   UNL     1      11.000 -13.997  -6.779  1.00  0.00     0.030 A 
HETATM   25  C   UNL     1       9.778 -14.097  -6.079  1.00  0.00     0.029 A 
HETATM   26  C   UNL     1       8.589 -14.055  -6.836  1.00  0.00     0.030 A 
HETATM   27  C   UNL     1       8.623 -13.927  -8.227  1.00  0.00     0.016 A 
BRANCH  25  28
HETATM   28  N   UNL     1       9.747 -14.225  -4.640  1.00  0.00    -0.390 N 
HETATM   29  C   UNL     1       8.556 -14.726  -3.965  1.00  0.00     0.149 C 
HETATM   30  C   UNL     1      10.904 -13.855  -3.836  1.00  0.00     0.149 C 
ENDBRANCH  25  28
ENDBRANCH  17  22
ENDBRANCH   4  12
BRANCH   6  31
HETATM   31  S   UNL     1       8.422 -12.519 -21.112  1.00  0.00     0.131 S 
HETATM   32  O   UNL     1       8.295 -12.528 -22.644  1.00  0.00    -0.598 OA
HETATM   33  O   UNL     1       6.945 -12.453 -20.695  1.00  0.00    -0.598 OA
BRANCH  31  34
HETATM   34  O   UNL     1       9.041 -10.964 -20.721  1.00  0.00    -0.292 OA
HETATM   35  H   UNL     1       9.504 -10.657 -21.542  1.00  0.00     0.232 HD
ENDBRANCH  31  34
ENDBRANCH   6  31
TORSDOF 5
ENDMDL
MODEL 5
REMARK VINA RESULT:      -7.6      1.707      2.337
REMARK  5 active torsions:
REMARK  status: ('A' for Active; 'I' for Inactive)
REMARK    1  A    between atoms: S_3  and  O_4 
REMARK    2  A    between atoms: S_3  and  C_15 
REMARK    3  A    between atoms: N_9  and  C_30 
REMARK    4  A    between atoms: C_11  and  C_13 
REMARK    5  A    between atoms: C_18  and  C_25 
ROOT
HETATM    1  S   UNL     1       9.516 -13.136  -8.062  1.00  0.00    -0.068 SA
HETATM    2  N   UNL     1       8.299 -15.235  -8.756  1.00  0.00    -0.344 N 
HETATM    3  C   UNL     1       8.137 -15.094  -7.398  1.00  0.00     0.053 A 
HETATM    4  C   UNL     1       9.076 -14.229  -9.280  1.00  0.00     0.087 A 
HETATM    5  C   UNL     1       8.748 -13.979  -6.839  1.00  0.00     0.057 A 
HETATM    6  C   UNL     1       8.678 -13.678  -5.471  1.00  0.00     0.097 A 
HETATM    7  C   UNL     1       7.946 -14.562  -4.637  1.00  0.00    -0.037 A 
HETATM    8  C   UNL     1       7.408 -15.963  -6.573  1.00  0.00     0.031 A 
HETATM    9  C   UNL     1       7.634 -16.319  -9.494  1.00  0.00     0.157 C 
HETATM   10  C   UNL     1       7.319 -15.695  -5.202  1.00  0.00     0.011 A 
HETATM   11  C   UNL     1       7.818 -14.322  -3.157  1.00  0.00     0.050 C 
ENDROOT
BRANCH   4  12
HETATM   12  C   UNL     1       9.551 -14.055 -10.689  1.00  0.00    -0.001 A 
HETATM   13  C   UNL     1       8.668 -13.868 -11.778  1.00  0.00     0.035 A 
HETATM   14  C   UNL     1       9.194 -13.740 -13.060  1.00  0.00     0.034 A 
HETATM   15  S   UNL     1       8.367 -13.503 -14.489  1.00  0.00    -0.069 SA
HETATM   16  C   UNL     1      10.549 -13.797 -13.325  1.00  0.00     0.052 A 
HETATM   17  C   UNL     1       9.774 -13.497 -15.439  1.00  0.00     0.087 A 
HETATM   18  N   UNL     1      10.890 -13.644 -14.646  1.00  0.00    -0.344 N 
HETATM   19  C   UNL     1      12.297 -13.595 -15.069  1.00  0.00     0.157 C 
HETATM   20  C   UNL     1      11.444 -13.994 -12.264  1.00  0.00     0.032 A 
HETATM   21  C   UNL     1      10.941 -14.133 -10.959  1.00  0.00     0.016 A 
BRANCH  17  22
HETATM   22  C   UNL     1       9.702 -13.382 -16.931  1.00  0.00    -0.002 A 
HETATM   23  C   UNL     1       9.212 -12.239 -17.589  1.00  0.00     0.016 A 
HETATM   24  C   UNL     1       9.184 -12.165 -18.984  1.00  0.00     0.030 A 
HETATM   25  C   UNL     1       9.655 -13.229 -19.783  1.00  0.00     0.029 A 
HETATM   26  C   UNL     1      10.167 -14.364 -19.120  1.00  0.00     0.030 A 
HETATM   27  C   UNL     1      10.196 -14.433 -17.724  1.00  0.00     0.016 A 
BRANCH  25  28
HETATM   28  N   UNL     1       9.627 -13.153 -21.225  1.00  0.00    -0.390 N 
HETATM   29  C   UNL     1      10.413 -14.078 -22.033  1.00  0.00     0.149 C 
HETATM   30  C   UNL     1       8.815 -12.150 -21.900  1.00  0.00     0.149 C 
ENDBRANCH  25  28
ENDBRANCH  17  22
ENDBRANCH   4  12
BRANCH   6  31
HETATM   31  S   UNL     1       9.500 -12.208  -4.811  1.00  0.00     0.131 S 
HETATM   32  O   UNL     1       9.227 -12.002  -3.312  1.00  0.00    -0.598 OA
HETATM   33  O   UNL     1      11.027 -12.372  -4.812  1.00  0.00    -0.598 OA
BRANCH  31  34
HETATM   34  O   UNL     1       9.240 -10.669  -5.532  1.00  0.00    -0.292 OA
HETATM   35  H   UNL     1       8.875 -10.865  -6.432  1.00  0.00     0.232 HD
ENDBRANCH  31  34
ENDBRANCH   6  31
TORSDOF 5
ENDMDL
MODEL 6
REMARK VINA RESULT:      -7.6      5.227     11.743
REMARK  5 active torsions:
REMARK  status: ('A' for Active; 'I' for Inactive)
REMARK    1  A    between atoms: S_3  and  O_4 
REMARK    2  A    between atoms: S_3  and  C_15 
REMARK    3  A    between atoms: N_9  and  C_30 
REMARK    4  A    between atoms: C_11  and  C_13 
REMARK    5  A    between atoms: C_18  and  C_25 
ROOT
HETATM    1  S   UNL     1       9.051 -13.209 -18.273  1.00  0.00    -0.068 SA
HETATM    2  N   UNL     1      10.294 -15.260 -17.485  1.00  0.00    -0.344 N 
HETATM    3  C   UNL     1      10.127 -15.375 -18.845  1.00  0.00     0.053 A 
HETATM    4  C   UNL     1       9.719 -14.108 -17.001  1.00  0.00     0.087 A 
HETATM    5  C   UNL     1       9.455 -14.322 -19.454  1.00  0.00     0.057 A 
HETATM    6  C   UNL     1       9.206 -14.274 -20.833  1.00  0.00     0.097 A 
HETATM    7  C   UNL     1       9.668 -15.357 -21.625  1.00  0.00    -0.037 A 
HETATM    8  C   UNL     1      10.589 -16.441 -19.632  1.00  0.00     0.031 A 
HETATM    9  C   UNL     1      11.063 -16.254 -16.724  1.00  0.00     0.157 C 
HETATM   10  C   UNL     1      10.355 -16.428 -21.011  1.00  0.00     0.011 A 
HETATM   11  C   UNL     1       9.443 -15.394 -23.114  1.00  0.00     0.050 C 
ENDROOT
BRANCH   4  12
HETATM   12  C   UNL     1       9.610 -13.644 -15.582  1.00  0.00    -0.001 A 
HETATM   13  C   UNL     1       9.949 -14.464 -14.481  1.00  0.00     0.035 A 
HETATM   14  C   UNL     1       9.793 -13.962 -13.192  1.00  0.00     0.034 A 
HETATM   15  S   UNL     1      10.131 -14.724 -11.747  1.00  0.00    -0.069 SA
HETATM   16  C   UNL     1       9.307 -12.695 -12.933  1.00  0.00     0.052 A 
HETATM   17  C   UNL     1       9.626 -13.408 -10.800  1.00  0.00     0.087 A 
HETATM   18  N   UNL     1       9.226 -12.363 -11.603  1.00  0.00    -0.344 N 
HETATM   19  C   UNL     1       8.812 -11.019 -11.177  1.00  0.00     0.157 C 
HETATM   20  C   UNL     1       8.952 -11.868 -14.008  1.00  0.00     0.032 A 
HETATM   21  C   UNL     1       9.094 -12.350 -15.320  1.00  0.00     0.016 A 
BRANCH  17  22
HETATM   22  C   UNL     1       9.617 -13.487  -9.304  1.00  0.00    -0.002 A 
HETATM   23  C   UNL     1       8.454 -13.307  -8.534  1.00  0.00     0.016 A 
HETATM   24  C   UNL     1       8.487 -13.414  -7.141  1.00  0.00     0.030 A 
HETATM   25  C   UNL     1       9.685 -13.715  -6.458  1.00  0.00     0.029 A 
HETATM   26  C   UNL     1      10.844 -13.917  -7.235  1.00  0.00     0.030 A 
HETATM   27  C   UNL     1      10.807 -13.813  -8.628  1.00  0.00     0.016 A 
BRANCH  25  28
HETATM   28  N   UNL     1       9.719 -13.826  -5.018  1.00  0.00    -0.390 N 
HETATM   29  C   UNL     1       8.793 -13.062  -4.192  1.00  0.00     0.149 C 
HETATM   30  C   UNL     1      10.682 -14.702  -4.363  1.00  0.00     0.149 C 
ENDBRANCH  25  28
ENDBRANCH  17  22
ENDBRANCH   4  12
BRANCH   6  31
HETATM   31  S   UNL     1       8.323 -12.872 -21.558  1.00  0.00     0.131 S 
HETATM   32  O   UNL     1       6.937 -12.657 -20.928  1.00  0.00    -0.598 OA
HETATM   33  O   UNL     1       9.010 -11.541 -21.218  1.00  0.00    -0.598 OA
BRANCH  31  34
HETATM   34  O   UNL     1       8.063 -12.792 -23.255  1.00  0.00    -0.292 OA
HETATM   35  H   UNL     1       7.993 -13.736 -23.550  1.00  0.00     0.232 HD
ENDBRANCH  31  34
ENDBRANCH   6  31
TORSDOF 5
ENDMDL
MODEL 7
REMARK VINA RESULT:      -7.6      5.021     11.679
REMARK  5 active torsions:
REMARK  status: ('A' for Active; 'I' for Inactive)
REMARK    1  A    between atoms: S_3  and  O_4 
REMARK    2  A    between atoms: S_3  and  C_15 
REMARK    3  A    between atoms: N_9  and  C_30 
REMARK    4  A    between atoms: C_11  and  C_13 
REMARK    5  A    between atoms: C_18  and  C_25 
ROOT
HETATM    1  S   UNL     1       9.889 -13.304 -17.615  1.00  0.00    -0.068 SA
HETATM    2  N   UNL     1      10.459 -15.751 -17.369  1.00  0.00    -0.344 N 
HETATM    3  C   UNL     1      10.094 -15.542 -18.677  1.00  0.00     0.053 A 
HETATM    4  C   UNL     1      10.370 -14.595 -16.628  1.00  0.00     0.087 A 
HETATM    5  C   UNL     1       9.744 -14.237 -18.996  1.00  0.00     0.057 A 
HETATM    6  C   UNL     1       9.354 -13.847 -20.286  1.00  0.00     0.097 A 
HETATM    7  C   UNL     1       9.322 -14.843 -21.296  1.00  0.00    -0.037 A 
HETATM    8  C   UNL     1      10.069 -16.524 -19.679  1.00  0.00     0.031 A 
HETATM    9  C   UNL     1      10.939 -17.062 -16.910  1.00  0.00     0.157 C 
HETATM   10  C   UNL     1       9.682 -16.171 -20.977  1.00  0.00     0.011 A 
HETATM   11  C   UNL     1       8.913 -14.518 -22.708  1.00  0.00     0.050 C 
ENDROOT
BRANCH   4  12
HETATM   12  C   UNL     1      10.602 -14.406 -15.161  1.00  0.00    -0.001 A 
HETATM   13  C   UNL     1       9.556 -14.446 -14.210  1.00  0.00     0.035 A 
HETATM   14  C   UNL     1       9.856 -14.234 -12.867  1.00  0.00     0.034 A 
HETATM   15  S   UNL     1       8.810 -14.243 -11.569  1.00  0.00    -0.069 SA
HETATM   16  C   UNL     1      11.136 -13.974 -12.416  1.00  0.00     0.052 A 
HETATM   17  C   UNL     1      10.025 -13.889 -10.436  1.00  0.00     0.087 A 
HETATM   18  N   UNL     1      11.250 -13.798 -11.059  1.00  0.00    -0.344 N 
HETATM   19  C   UNL     1      12.560 -13.601 -10.423  1.00  0.00     0.157 C 
HETATM   20  C   UNL     1      12.187 -13.917 -13.342  1.00  0.00     0.032 A 
HETATM   21  C   UNL     1      11.913 -14.120 -14.704  1.00  0.00     0.016 A 
BRANCH  17  22
HETATM   22  C   UNL     1       9.700 -13.684  -8.989  1.00  0.00    -0.002 A 
HETATM   23  C   UNL     1      10.002 -14.631  -7.994  1.00  0.00     0.016 A 
HETATM   24  C   UNL     1       9.701 -14.387  -6.651  1.00  0.00     0.030 A 
HETATM   25  C   UNL     1       9.094 -13.180  -6.243  1.00  0.00     0.029 A 
HETATM   26  C   UNL     1       8.814 -12.224  -7.241  1.00  0.00     0.030 A 
HETATM   27  C   UNL     1       9.118 -12.469  -8.582  1.00  0.00     0.016 A 
BRANCH  25  28
HETATM   28  N   UNL     1       8.784 -12.928  -4.855  1.00  0.00    -0.390 N 
HETATM   29  C   UNL     1       9.187 -11.681  -4.218  1.00  0.00     0.149 C 
HETATM   30  C   UNL     1       8.063 -13.917  -4.064  1.00  0.00     0.149 C 
ENDBRANCH  25  28
ENDBRANCH  17  22
ENDBRANCH   4  12
BRANCH   6  31
HETATM   31  S   UNL     1       8.909 -12.128 -20.630  1.00  0.00     0.131 S 
HETATM   32  O   UNL     1       9.187 -11.726 -22.088  1.00  0.00    -0.598 OA
HETATM   33  O   UNL     1       7.390 -11.915 -20.552  1.00  0.00    -0.598 OA
BRANCH  31  34
HETATM   34  O   UNL     1       9.563 -10.853 -19.680  1.00  0.00    -0.292 OA
HETATM   35  H   UNL     1       8.775 -10.357 -19.338  1.00  0.00     0.232 HD
ENDBRANCH  31  34
ENDBRANCH   6  31
TORSDOF 5
ENDMDL
MODEL 8
REMARK VINA RESULT:      -7.6      1.505      2.342
REMARK  5 active torsions:
REMARK  status: ('A' for Active; 'I' for Inactive)
REMARK    1  A    between atoms: S_3  and  O_4 
REMARK    2  A    between atoms: S_3  and  C_15 
REMARK    3  A    between atoms: N_9  and  C_30 
REMARK    4  A    between atoms: C_11  and  C_13 
REMARK    5  A    between atoms: C_18  and  C_25 
ROOT
HETATM    1  S   UNL     1       9.074 -13.859  -7.844  1.00  0.00    -0.068 SA
HETATM    2  N   UNL     1      10.493 -15.924  -8.156  1.00  0.00    -0.344 N 
HETATM    3  C   UNL     1      10.602 -15.544  -6.841  1.00  0.00     0.053 A 
HETATM    4  C   UNL     1       9.690 -15.063  -8.867  1.00  0.00     0.087 A 
HETATM    5  C   UNL     1       9.878 -14.412  -6.486  1.00  0.00     0.057 A 
HETATM    6  C   UNL     1       9.870 -13.891  -5.184  1.00  0.00     0.097 A 
HETATM    7  C   UNL     1      10.641 -14.562  -4.199  1.00  0.00    -0.037 A 
HETATM    8  C   UNL     1      11.357 -16.209  -5.863  1.00  0.00     0.031 A 
HETATM    9  C   UNL     1      11.131 -17.152  -8.651  1.00  0.00     0.157 C 
HETATM   10  C   UNL     1      11.375 -15.715  -4.554  1.00  0.00     0.011 A 
HETATM   11  C   UNL     1      10.695 -14.073  -2.776  1.00  0.00     0.050 C 
ENDROOT
BRANCH   4  12
HETATM   12  C   UNL     1       9.374 -15.073 -10.330  1.00  0.00    -0.001 A 
HETATM   13  C   UNL     1      10.182 -14.424 -11.292  1.00  0.00     0.035 A 
HETATM   14  C   UNL     1       9.802 -14.461 -12.630  1.00  0.00     0.034 A 
HETATM   15  S   UNL     1      10.586 -13.787 -13.939  1.00  0.00    -0.069 SA
HETATM   16  C   UNL     1       8.657 -15.099 -13.068  1.00  0.00     0.052 A 
HETATM   17  C   UNL     1       9.421 -14.314 -15.057  1.00  0.00     0.087 A 
HETATM   18  N   UNL     1       8.441 -15.042 -14.422  1.00  0.00    -0.344 N 
HETATM   19  C   UNL     1       7.312 -15.749 -15.044  1.00  0.00     0.157 C 
HETATM   20  C   UNL     1       7.833 -15.740 -12.132  1.00  0.00     0.032 A 
HETATM   21  C   UNL     1       8.189 -15.713 -10.773  1.00  0.00     0.016 A 
BRANCH  17  22
HETATM   22  C   UNL     1       9.518 -13.949 -16.507  1.00  0.00    -0.002 A 
HETATM   23  C   UNL     1      10.058 -14.809 -17.480  1.00  0.00     0.016 A 
HETATM   24  C   UNL     1      10.107 -14.437 -18.826  1.00  0.00     0.030 A 
HETATM   25  C   UNL     1       9.608 -13.189 -19.259  1.00  0.00     0.029 A 
HETATM   26  C   UNL     1       9.047 -12.338 -18.284  1.00  0.00     0.030 A 
HETATM   27  C   UNL     1       8.997 -12.715 -16.940  1.00  0.00     0.016 A 
BRANCH  25  28
HETATM   28  N   UNL     1       9.658 -12.804 -20.650  1.00  0.00    -0.390 N 
HETATM   29  C   UNL     1      10.440 -13.578 -21.607  1.00  0.00     0.149 C 
HETATM   30  C   UNL     1       8.930 -11.634 -21.124  1.00  0.00     0.149 C 
ENDBRANCH  25  28
ENDBRANCH  17  22
ENDBRANCH   4  12
BRANCH   6  31
HETATM   31  S   UNL     1       8.906 -12.411  -4.793  1.00  0.00     0.131 S 
HETATM   32  O   UNL     1       7.666 -12.261  -5.690  1.00  0.00    -0.598 OA
HETATM   33  O   UNL     1       8.254 -12.517  -3.407  1.00  0.00    -0.598 OA
BRANCH  31  34
HETATM   34  O   UNL     1       9.651 -10.863  -4.792  1.00  0.00    -0.292 OA
HETATM   35  H   UNL     1       9.432 -10.472  -3.908  1.00  0.00     0.232 HD
ENDBRANCH  31  34
ENDBRANCH   6  31
TORSDOF 5
ENDMDL
MODEL 9
REMARK VINA RESULT:      -7.6      4.279     12.021
REMARK  5 active torsions:
REMARK  status: ('A' for Active; 'I' for Inactive)
REMARK    1  A    between atoms: S_3  and  O_4 
REMARK    2  A    between atoms: S_3  and  C_15 
REMARK    3  A    between atoms: N_9  and  C_30 
REMARK    4  A    between atoms: C_11  and  C_13 
REMARK    5  A    between atoms: C_18  and  C_25 
ROOT
HETATM    1  S   UNL     1       9.742 -13.225 -12.872  1.00  0.00    -0.068 SA
HETATM    2  N   UNL     1      10.505 -15.612 -12.573  1.00  0.00    -0.344 N 
HETATM    3  C   UNL     1      10.220 -15.434 -13.906  1.00  0.00     0.053 A 
HETATM    4  C   UNL     1      10.260 -14.470 -11.847  1.00  0.00     0.087 A 
HETATM    5  C   UNL     1       9.781 -14.163 -14.256  1.00  0.00     0.057 A 
HETATM    6  C   UNL     1       9.454 -13.806 -15.572  1.00  0.00     0.097 A 
HETATM    7  C   UNL     1       9.584 -14.799 -16.577  1.00  0.00    -0.037 A 
HETATM    8  C   UNL     1      10.354 -16.411 -14.903  1.00  0.00     0.031 A 
HETATM    9  C   UNL     1      11.063 -16.877 -12.075  1.00  0.00     0.157 C 
HETATM   10  C   UNL     1      10.034 -16.092 -16.227  1.00  0.00     0.011 A 
HETATM   11  C   UNL     1       9.253 -14.509 -18.017  1.00  0.00     0.050 C 
ENDROOT
BRANCH   4  12
HETATM   12  C   UNL     1      10.366 -14.265 -10.367  1.00  0.00    -0.001 A 
HETATM   13  C   UNL     1       9.235 -14.145  -9.528  1.00  0.00     0.035 A 
HETATM   14  C   UNL     1       9.423 -13.929  -8.166  1.00  0.00     0.034 A 
HETATM   15  S   UNL     1       8.259 -13.767  -6.982  1.00  0.00    -0.069 SA
HETATM   16  C   UNL     1      10.674 -13.814  -7.590  1.00  0.00     0.052 A 
HETATM   17  C   UNL     1       9.391 -13.530  -5.738  1.00  0.00     0.087 A 
HETATM   18  N   UNL     1      10.673 -13.611  -6.233  1.00  0.00    -0.344 N 
HETATM   19  C   UNL     1      11.928 -13.557  -5.469  1.00  0.00     0.157 C 
HETATM   20  C   UNL     1      11.811 -13.917  -8.404  1.00  0.00     0.032 A 
HETATM   21  C   UNL     1      11.651 -14.129  -9.783  1.00  0.00     0.016 A 
BRANCH  17  22
HETATM   22  C   UNL     1       8.951 -13.241  -4.336  1.00  0.00    -0.002 A 
HETATM   23  C   UNL     1       9.264 -12.045  -3.665  1.00  0.00     0.016 A 
HETATM   24  C   UNL     1       8.813 -11.806  -2.364  1.00  0.00     0.030 A 
HETATM   25  C   UNL     1       8.018 -12.752  -1.680  1.00  0.00     0.029 A 
HETATM   26  C   UNL     1       7.688 -13.940  -2.364  1.00  0.00     0.030 A 
HETATM   27  C   UNL     1       8.138 -14.174  -3.666  1.00  0.00     0.016 A 
BRANCH  25  28
HETATM   28  N   UNL     1       7.551 -12.506  -0.336  1.00  0.00    -0.390 N 
HETATM   29  C   UNL     1       8.476 -12.073   0.704  1.00  0.00     0.149 C 
HETATM   30  C   UNL     1       6.147 -12.687   0.007  1.00  0.00     0.149 C 
ENDBRANCH  25  28
ENDBRANCH  17  22
ENDBRANCH   4  12
BRANCH   6  31
HETATM   31  S   UNL     1       8.887 -12.132 -15.955  1.00  0.00     0.131 S 
HETATM   32  O   UNL     1       9.187 -11.724 -17.407  1.00  0.00    -0.598 OA
HETATM   33  O   UNL     1       7.353 -12.042 -15.937  1.00  0.00    -0.598 OA
BRANCH  31  34
HETATM   34  O   UNL     1       9.399 -10.800 -14.998  1.00  0.00    -0.292 OA
HETATM   35  H   UNL     1       9.087 -11.007 -14.080  1.00  0.00     0.232 HD
ENDBRANCH  31  34
ENDBRANCH   6  31
TORSDOF 5
ENDMDL
MODEL 10
REMARK VINA RESULT:      -7.5      2.305      2.931
REMARK  5 active torsions:
REMARK  status: ('A' for Active; 'I' for Inactive)
REMARK    1  A    between atoms: S_3  and  O_4 
REMARK    2  A    between atoms: S_3  and  C_15 
REMARK    3  A    between atoms: N_9  and  C_30 
REMARK    4  A    between atoms: C_11  and  C_13 
REMARK    5  A    between atoms: C_18  and  C_25 
ROOT
HETATM    1  S   UNL     1       9.255 -14.945  -9.237  1.00  0.00    -0.068 SA
HETATM    2  N   UNL     1       9.217 -12.422  -9.293  1.00  0.00    -0.344 N 
HETATM    3  C   UNL     1       8.884 -12.811  -8.018  1.00  0.00     0.053 A 
HETATM    4  C   UNL     1       9.429 -13.505 -10.113  1.00  0.00     0.087 A 
HETATM    5  C   UNL     1       8.856 -14.183  -7.802  1.00  0.00     0.057 A 
HETATM    6  C   UNL     1       8.544 -14.753  -6.559  1.00  0.00     0.097 A 
HETATM    7  C   UNL     1       8.247 -13.873  -5.486  1.00  0.00    -0.037 A 
HETATM    8  C   UNL     1       8.597 -11.944  -6.953  1.00  0.00     0.031 A 
HETATM    9  C   UNL     1       9.372 -11.002  -9.641  1.00  0.00     0.157 C 
HETATM   10  C   UNL     1       8.278 -12.477  -5.699  1.00  0.00     0.011 A 
HETATM   11  C   UNL     1       7.897 -14.393  -4.117  1.00  0.00     0.050 C 
ENDROOT
BRANCH   4  12
HETATM   12  C   UNL     1       9.734 -13.520 -11.579  1.00  0.00    -0.001 A 
HETATM   13  C   UNL     1       8.771 -13.199 -12.564  1.00  0.00     0.035 A 
HETATM   14  C   UNL     1       9.132 -13.264 -13.907  1.00  0.00     0.034 A 
HETATM   15  S   UNL     1       8.187 -12.926 -15.240  1.00  0.00    -0.069 SA
HETATM   16  C   UNL     1      10.393 -13.640 -14.329  1.00  0.00     0.052 A 
HETATM   17  C   UNL     1       9.419 -13.290 -16.351  1.00  0.00     0.087 A 
HETATM   18  N   UNL     1      10.575 -13.641 -15.689  1.00  0.00    -0.344 N 
HETATM   19  C   UNL     1      11.887 -13.933 -16.283  1.00  0.00     0.157 C 
HETATM   20  C   UNL     1      11.360 -13.975 -13.371  1.00  0.00     0.032 A 
HETATM   21  C   UNL     1      11.023 -13.925 -12.009  1.00  0.00     0.016 A 
BRANCH  17  22
HETATM   22  C   UNL     1       9.169 -13.244 -17.827  1.00  0.00    -0.002 A 
HETATM   23  C   UNL     1       9.467 -12.121 -18.620  1.00  0.00     0.016 A 
HETATM   24  C   UNL     1       9.240 -12.130 -19.999  1.00  0.00     0.030 A 
HETATM   25  C   UNL     1       8.713 -13.268 -20.647  1.00  0.00     0.029 A 
HETATM   26  C   UNL     1       8.436 -14.400 -19.851  1.00  0.00     0.030 A 
HETATM   27  C   UNL     1       8.668 -14.388 -18.474  1.00  0.00     0.016 A 
BRANCH  25  28
HETATM   28  N   UNL     1       8.477 -13.278 -22.072  1.00  0.00    -0.390 N 
HETATM   29  C   UNL     1       8.970 -12.195 -22.913  1.00  0.00     0.149 C 
HETATM   30  C   UNL     1       7.742 -14.371 -22.695  1.00  0.00     0.149 C 
ENDBRANCH  25  28
ENDBRANCH  17  22
ENDBRANCH   4  12
BRANCH   6  31
HETATM   31  S   UNL     1       8.524 -16.549  -6.352  1.00  0.00     0.131 S 
HETATM   32  O   UNL     1       9.485 -17.027  -5.251  1.00  0.00    -0.598 OA
HETATM   33  O   UNL     1       7.177 -17.035  -5.796  1.00  0.00    -0.598 OA
BRANCH  31  34
HETATM   34  O   UNL     1       8.825 -17.583  -7.692  1.00  0.00    -0.292 OA
HETATM   35  H   UNL     1       8.034 -18.178  -7.740  1.00  0.00     0.232 HD
ENDBRANCH  31  34
ENDBRANCH   6  31
TORSDOF 5
ENDMDL
MODEL 11
REMARK VINA RESULT:      -7.5      2.310      2.884
REMARK  5 active torsions:
REMARK  status: ('A' for Active; 'I' for Inactive)
REMARK    1  A    between atoms: S_3  and  O_4 
REMARK    2  A    between atoms: S_3  and  C_15 
REMARK    3  A    between atoms: N_9  and  C_30 
REMARK    4  A    between atoms: C_11  and  C_13 
REMARK    5  A    between atoms: C_18  and  C_25 
ROOT
HETATM    1  S   UNL     1       9.306 -14.886  -9.255  1.00  0.00    -0.068 SA
HETATM    2  N   UNL     1       9.266 -12.363  -9.334  1.00  0.00    -0.344 N 
HETATM    3  C   UNL     1       8.933 -12.741  -8.056  1.00  0.00     0.053 A 
HETATM    4  C   UNL     1       9.480 -13.454 -10.144  1.00  0.00     0.087 A 
HETATM    5  C   UNL     1       8.906 -14.111  -7.828  1.00  0.00     0.057 A 
HETATM    6  C   UNL     1       8.593 -14.670  -6.580  1.00  0.00     0.097 A 
HETATM    7  C   UNL     1       8.295 -13.781  -5.515  1.00  0.00    -0.037 A 
HETATM    8  C   UNL     1       8.644 -11.865  -6.999  1.00  0.00     0.031 A 
HETATM    9  C   UNL     1       9.421 -10.947  -9.695  1.00  0.00     0.157 C 
HETATM   10  C   UNL     1       8.325 -12.386  -5.740  1.00  0.00     0.011 A 
HETATM   11  C   UNL     1       7.945 -14.288  -4.141  1.00  0.00     0.050 C 
ENDROOT
BRANCH   4  12
HETATM   12  C   UNL     1       9.785 -13.483 -11.610  1.00  0.00    -0.001 A 
HETATM   13  C   UNL     1       8.822 -13.177 -12.599  1.00  0.00     0.035 A 
HETATM   14  C   UNL     1       9.183 -13.254 -13.940  1.00  0.00     0.034 A 
HETATM   15  S   UNL     1       8.237 -12.935 -15.277  1.00  0.00    -0.069 SA
HETATM   16  C   UNL     1      10.446 -13.627 -14.358  1.00  0.00     0.052 A 
HETATM   17  C   UNL     1       9.472 -13.303 -16.384  1.00  0.00     0.087 A 
HETATM   18  N   UNL     1      10.629 -13.641 -15.718  1.00  0.00    -0.344 N 
HETATM   19  C   UNL     1      11.943 -13.932 -16.308  1.00  0.00     0.157 C 
HETATM   20  C   UNL     1      11.415 -13.947 -13.396  1.00  0.00     0.032 A 
HETATM   21  C   UNL     1      11.077 -13.884 -12.035  1.00  0.00     0.016 A 
BRANCH  17  22
HETATM   22  C   UNL     1       9.223 -13.274 -17.861  1.00  0.00    -0.002 A 
HETATM   23  C   UNL     1       9.257 -12.091 -18.620  1.00  0.00     0.016 A 
HETATM   24  C   UNL     1       9.041 -12.112 -20.001  1.00  0.00     0.030 A 
HETATM   25  C   UNL     1       8.792 -13.322 -20.684  1.00  0.00     0.029 A 
HETATM   26  C   UNL     1       8.781 -14.509 -19.922  1.00  0.00     0.030 A 
HETATM   27  C   UNL     1       9.000 -14.484 -18.543  1.00  0.00     0.016 A 
BRANCH  25  28
HETATM   28  N   UNL     1       8.570 -13.345 -22.111  1.00  0.00    -0.390 N 
HETATM   29  C   UNL     1       7.825 -14.435 -22.729  1.00  0.00     0.149 C 
HETATM   30  C   UNL     1       9.087 -12.280 -22.961  1.00  0.00     0.149 C 
ENDBRANCH  25  28
ENDBRANCH  17  22
ENDBRANCH   4  12
BRANCH   6  31
HETATM   31  S   UNL     1       8.575 -16.464  -6.355  1.00  0.00     0.131 S 
HETATM   32  O   UNL     1       7.535 -17.160  -7.248  1.00  0.00    -0.598 OA
HETATM   33  O   UNL     1       9.875 -17.106  -6.864  1.00  0.00    -0.598 OA
BRANCH  31  34
HETATM   34  O   UNL     1       8.352 -17.143  -4.792  1.00  0.00    -0.292 OA
HETATM   35  H   UNL     1       7.429 -16.892  -4.532  1.00  0.00     0.232 HD
ENDBRANCH  31  34
ENDBRANCH   6  31
TORSDOF 5
ENDMDL
MODEL 12
REMARK VINA RESULT:      -7.5      5.000     11.956
REMARK  5 active torsions:
REMARK  status: ('A' for Active; 'I' for Inactive)
REMARK    1  A    between atoms: S_3  and  O_4 
REMARK    2  A    between atoms: S_3  and  C_15 
REMARK    3  A    between atoms: N_9  and  C_30 
REMARK    4  A    between atoms: C_11  and  C_13 
REMARK    5  A    between atoms: C_18  and  C_25 
ROOT
HETATM    1  S   UNL     1      10.331 -14.809 -17.326  1.00  0.00    -0.068 SA
HETATM    2  N   UNL     1       9.387 -12.494 -16.976  1.00  0.00    -0.344 N 
HETATM    3  C   UNL     1       9.389 -12.738 -18.328  1.00  0.00     0.053 A 
HETATM    4  C   UNL     1       9.913 -13.551 -16.270  1.00  0.00     0.087 A 
HETATM    5  C   UNL     1       9.880 -13.981 -18.708  1.00  0.00     0.057 A 
HETATM    6  C   UNL     1       9.947 -14.397 -20.046  1.00  0.00     0.097 A 
HETATM    7  C   UNL     1       9.486 -13.496 -21.041  1.00  0.00    -0.037 A 
HETATM    8  C   UNL     1       8.928 -11.853 -19.314  1.00  0.00     0.031 A 
HETATM    9  C   UNL     1       8.814 -11.258 -16.425  1.00  0.00     0.157 C 
HETATM   10  C   UNL     1       8.981 -12.233 -20.659  1.00  0.00     0.011 A 
HETATM   11  C   UNL     1       9.522 -13.854 -22.503  1.00  0.00     0.050 C 
ENDROOT
BRANCH   4  12
HETATM   12  C   UNL     1      10.161 -13.659 -14.798  1.00  0.00    -0.001 A 
HETATM   13  C   UNL     1       9.130 -13.538 -13.837  1.00  0.00     0.035 A 
HETATM   14  C   UNL     1       9.452 -13.626 -12.486  1.00  0.00     0.034 A 
HETATM   15  S   UNL     1       8.422 -13.527 -11.178  1.00  0.00    -0.069 SA
HETATM   16  C   UNL     1      10.743 -13.818 -12.032  1.00  0.00     0.052 A 
HETATM   17  C   UNL     1       9.665 -13.714 -10.036  1.00  0.00     0.087 A 
HETATM   18  N   UNL     1      10.876 -13.888 -10.668  1.00  0.00    -0.344 N 
HETATM   19  C   UNL     1      12.174 -14.176 -10.042  1.00  0.00     0.157 C 
HETATM   20  C   UNL     1      11.784 -13.928 -12.965  1.00  0.00     0.032 A 
HETATM   21  C   UNL     1      11.490 -13.837 -14.336  1.00  0.00     0.016 A 
BRANCH  17  22
HETATM   22  C   UNL     1       9.385 -13.644  -8.566  1.00  0.00    -0.002 A 
HETATM   23  C   UNL     1       9.424 -14.769  -7.723  1.00  0.00     0.016 A 
HETATM   24  C   UNL     1       9.179 -14.653  -6.352  1.00  0.00     0.030 A 
HETATM   25  C   UNL     1       8.892 -13.403  -5.763  1.00  0.00     0.029 A 
HETATM   26  C   UNL     1       8.875 -12.274  -6.607  1.00  0.00     0.030 A 
HETATM   27  C   UNL     1       9.124 -12.393  -7.977  1.00  0.00     0.016 A 
BRANCH  25  28
HETATM   28  N   UNL     1       8.638 -13.283  -4.346  1.00  0.00    -0.390 N 
HETATM   29  C   UNL     1       9.086 -12.109  -3.608  1.00  0.00     0.149 C 
HETATM   30  C   UNL     1       7.931 -14.335  -3.627  1.00  0.00     0.149 C 
ENDBRANCH  25  28
ENDBRANCH  17  22
ENDBRANCH   4  12
BRANCH   6  31
HETATM   31  S   UNL     1      10.601 -16.029 -20.468  1.00  0.00     0.131 S 
HETATM   32  O   UNL     1      11.952 -16.316 -19.793  1.00  0.00    -0.598 OA
HETATM   33  O   UNL     1       9.734 -17.151 -19.877  1.00  0.00    -0.598 OA
BRANCH  31  34
HETATM   34  O   UNL     1      10.814 -16.482 -22.112  1.00  0.00    -0.292 OA
HETATM   35  H   UNL     1      10.953 -17.463 -22.093  1.00  0.00     0.232 HD
ENDBRANCH  31  34
ENDBRANCH   6  31
TORSDOF 5
ENDMDL
MODEL 13
REMARK VINA RESULT:      -7.4      4.763     11.726
REMARK  5 active torsions:
REMARK  status: ('A' for Active; 'I' for Inactive)
REMARK    1  A    between atoms: S_3  and  O_4 
REMARK    2  A    between atoms: S_3  and  C_15 
REMARK    3  A    between atoms: N_9  and  C_30 
REMARK    4  A    between atoms: C_11  and  C_13 
REMARK    5  A    between atoms: C_18  and  C_25 
ROOT
HETATM    1  S   UNL     1       9.639 -13.224 -16.530  1.00  0.00    -0.068 SA
HETATM    2  N   UNL     1       8.357 -15.320 -15.949  1.00  0.00    -0.344 N 
HETATM    3  C   UNL     1       8.169 -15.080 -17.289  1.00  0.00     0.053 A 
HETATM    4  C   UNL     1       9.138 -14.350 -15.366  1.00  0.00     0.087 A 
HETATM    5  C   UNL     1       8.810 -13.953 -17.787  1.00  0.00     0.057 A 
HETATM    6  C   UNL     1       8.732 -13.565 -19.133  1.00  0.00     0.097 A 
HETATM    7  C   UNL     1       7.961 -14.371 -20.009  1.00  0.00    -0.037 A 
HETATM    8  C   UNL     1       7.413 -15.879 -18.159  1.00  0.00     0.031 A 
HETATM    9  C   UNL     1       7.812 -16.524 -15.306  1.00  0.00     0.157 C 
HETATM   10  C   UNL     1       7.310 -15.521 -19.508  1.00  0.00     0.011 A 
HETATM   11  C   UNL     1       7.817 -14.032 -21.468  1.00  0.00     0.050 C 
ENDROOT
BRANCH   4  12
HETATM   12  C   UNL     1       9.516 -14.197 -13.925  1.00  0.00    -0.001 A 
HETATM   13  C   UNL     1       8.559 -14.109 -12.888  1.00  0.00     0.035 A 
HETATM   14  C   UNL     1       8.997 -13.941 -11.578  1.00  0.00     0.034 A 
HETATM   15  S   UNL     1       8.072 -13.823 -10.194  1.00  0.00    -0.069 SA
HETATM   16  C   UNL     1      10.333 -13.845 -11.238  1.00  0.00     0.052 A 
HETATM   17  C   UNL     1       9.414 -13.628  -9.172  1.00  0.00     0.087 A 
HETATM   18  N   UNL     1      10.583 -13.689  -9.898  1.00  0.00    -0.344 N 
HETATM   19  C   UNL     1      11.957 -13.660  -9.377  1.00  0.00     0.157 C 
HETATM   20  C   UNL     1      11.300 -13.916 -12.251  1.00  0.00     0.032 A 
HETATM   21  C   UNL     1      10.888 -14.079 -13.584  1.00  0.00     0.016 A 
BRANCH  17  22
HETATM   22  C   UNL     1       9.242 -13.390  -7.704  1.00  0.00    -0.002 A 
HETATM   23  C   UNL     1       8.959 -12.124  -7.161  1.00  0.00     0.016 A 
HETATM   24  C   UNL     1       8.782 -11.951  -5.785  1.00  0.00     0.030 A 
HETATM   25  C   UNL     1       8.872 -13.040  -4.893  1.00  0.00     0.029 A 
HETATM   26  C   UNL     1       9.134 -14.312  -5.443  1.00  0.00     0.030 A 
HETATM   27  C   UNL     1       9.306 -14.482  -6.819  1.00  0.00     0.016 A 
BRANCH  25  28
HETATM   28  N   UNL     1       8.689 -12.862  -3.471  1.00  0.00    -0.390 N 
HETATM   29  C   UNL     1       9.187 -11.666  -2.803  1.00  0.00     0.149 C 
HETATM   30  C   UNL     1       8.005 -13.875  -2.678  1.00  0.00     0.149 C 
ENDBRANCH  25  28
ENDBRANCH  17  22
ENDBRANCH   4  12
BRANCH   6  31
HETATM   31  S   UNL     1       9.592 -12.083 -19.712  1.00  0.00     0.131 S 
HETATM   32  O   UNL     1       9.533 -10.931 -18.697  1.00  0.00    -0.598 OA
HETATM   33  O   UNL     1      11.108 -12.314 -19.805  1.00  0.00    -0.598 OA
BRANCH  31  34
HETATM   34  O   UNL     1       9.181 -11.373 -21.223  1.00  0.00    -0.292 OA
HETATM   35  H   UNL     1       9.121 -10.401 -21.042  1.00  0.00     0.232 HD
ENDBRANCH  31  34
ENDBRANCH   6  31
TORSDOF 5
ENDMDL
MODEL 14
REMARK VINA RESULT:      -7.4      2.359      4.068
REMARK  5 active torsions:
REMARK  status: ('A' for Active; 'I' for Inactive)
REMARK    1  A    between atoms: S_3  and  O_4 
REMARK    2  A    between atoms: S_3  and  C_15 
REMARK    3  A    between atoms: N_9  and  C_30 
REMARK    4  A    between atoms: C_11  and  C_13 
REMARK    5  A    between atoms: C_18  and  C_25 
ROOT
HETATM    1  S   UNL     1       9.134 -13.768 -12.783  1.00  0.00    -0.068 SA
HETATM    2  N   UNL     1      10.515 -15.854 -13.119  1.00  0.00    -0.344 N 
HETATM    3  C   UNL     1      10.586 -15.522 -11.787  1.00  0.00     0.053 A 
HETATM    4  C   UNL     1       9.757 -14.950 -13.826  1.00  0.00     0.087 A 
HETATM    5  C   UNL     1       9.876 -14.387 -11.418  1.00  0.00     0.057 A 
HETATM    6  C   UNL     1       9.834 -13.910 -10.099  1.00  0.00     0.097 A 
HETATM    7  C   UNL     1      10.553 -14.633  -9.113  1.00  0.00    -0.037 A 
HETATM    8  C   UNL     1      11.291 -16.238 -10.808  1.00  0.00     0.031 A 
HETATM    9  C   UNL     1      11.143 -17.079 -13.634  1.00  0.00     0.157 C 
HETATM   10  C   UNL     1      11.273 -15.791  -9.483  1.00  0.00     0.011 A 
HETATM   11  C   UNL     1      10.569 -14.195  -7.673  1.00  0.00     0.050 C 
ENDROOT
BRANCH   4  12
HETATM   12  C   UNL     1       9.494 -14.902 -15.299  1.00  0.00    -0.001 A 
HETATM   13  C   UNL     1      10.349 -14.237 -16.208  1.00  0.00     0.035 A 
HETATM   14  C   UNL     1      10.015 -14.219 -17.559  1.00  0.00     0.034 A 
HETATM   15  S   UNL     1      10.859 -13.517 -18.815  1.00  0.00    -0.069 SA
HETATM   16  C   UNL     1       8.874 -14.817 -18.059  1.00  0.00     0.052 A 
HETATM   17  C   UNL     1       9.724 -13.979 -19.991  1.00  0.00     0.087 A 
HETATM   18  N   UNL     1       8.707 -14.708 -19.417  1.00  0.00    -0.344 N 
HETATM   19  C   UNL     1       7.587 -15.368 -20.103  1.00  0.00     0.157 C 
HETATM   20  C   UNL     1       8.004 -15.472 -17.175  1.00  0.00     0.032 A 
HETATM   21  C   UNL     1       8.312 -15.500 -15.805  1.00  0.00     0.016 A 
BRANCH  17  22
HETATM   22  C   UNL     1       9.880 -13.566 -21.423  1.00  0.00    -0.002 A 
HETATM   23  C   UNL     1       9.057 -12.605 -22.037  1.00  0.00     0.016 A 
HETATM   24  C   UNL     1       9.253 -12.232 -23.369  1.00  0.00     0.030 A 
HETATM   25  C   UNL     1      10.289 -12.799 -24.144  1.00  0.00     0.029 A 
HETATM   26  C   UNL     1      11.125 -13.746 -23.517  1.00  0.00     0.030 A 
HETATM   27  C   UNL     1      10.929 -14.114 -22.184  1.00  0.00     0.016 A 
BRANCH  25  28
HETATM   28  N   UNL     1      10.492 -12.413 -25.521  1.00  0.00    -0.390 N 
HETATM   29  C   UNL     1      11.747 -11.806 -25.944  1.00  0.00     0.149 C 
HETATM   30  C   UNL     1       9.445 -12.623 -26.513  1.00  0.00     0.149 C 
ENDBRANCH  25  28
ENDBRANCH  17  22
ENDBRANCH   4  12
BRANCH   6  31
HETATM   31  S   UNL     1       8.890 -12.422  -9.691  1.00  0.00     0.131 S 
HETATM   32  O   UNL     1       7.639 -12.257 -10.569  1.00  0.00    -0.598 OA
HETATM   33  O   UNL     1       8.256 -12.526  -8.295  1.00  0.00    -0.598 OA
BRANCH  31  34
HETATM   34  O   UNL     1       9.650 -10.881  -9.696  1.00  0.00    -0.292 OA
HETATM   35  H   UNL     1      10.369 -10.946  -9.016  1.00  0.00     0.232 HD
ENDBRANCH  31  34
ENDBRANCH   6  31
TORSDOF 5
ENDMDL
MODEL 15
REMARK VINA RESULT:      -7.3      2.168      3.750
REMARK  5 active torsions:
REMARK  status: ('A' for Active; 'I' for Inactive)
REMARK    1  A    between atoms: S_3  and  O_4 
REMARK    2  A    between atoms: S_3  and  C_15 
REMARK    3  A    between atoms: N_9  and  C_30 
REMARK    4  A    between atoms: C_11  and  C_13 
REMARK    5  A    between atoms: C_18  and  C_25 
ROOT
HETATM    1  S   UNL     1       9.691 -13.542 -12.415  1.00  0.00    -0.068 SA
HETATM    2  N   UNL     1      10.718 -15.814 -12.812  1.00  0.00    -0.344 N 
HETATM    3  C   UNL     1      10.535 -15.674 -11.457  1.00  0.00     0.053 A 
HETATM    4  C   UNL     1      10.320 -14.688 -13.494  1.00  0.00     0.087 A 
HETATM    5  C   UNL     1       9.973 -14.470 -11.053  1.00  0.00     0.057 A 
HETATM    6  C   UNL     1       9.710 -14.166  -9.709  1.00  0.00     0.097 A 
HETATM    7  C   UNL     1      10.039 -15.142  -8.735  1.00  0.00    -0.037 A 
HETATM    8  C   UNL     1      10.852 -16.641 -10.492  1.00  0.00     0.031 A 
HETATM    9  C   UNL     1      11.219 -17.069 -13.389  1.00  0.00     0.157 C 
HETATM   10  C   UNL     1      10.607 -16.371  -9.141  1.00  0.00     0.011 A 
HETATM   11  C   UNL     1       9.796 -14.903  -7.268  1.00  0.00     0.050 C 
ENDROOT
BRANCH   4  12
HETATM   12  C   UNL     1      10.420 -14.400 -14.960  1.00  0.00    -0.001 A 
HETATM   13  C   UNL     1       9.295 -14.396 -15.818  1.00  0.00     0.035 A 
HETATM   14  C   UNL     1       9.481 -14.145 -17.174  1.00  0.00     0.034 A 
HETATM   15  S   UNL     1       8.323 -14.077 -18.373  1.00  0.00    -0.069 SA
HETATM   16  C   UNL     1      10.724 -13.907 -17.731  1.00  0.00     0.052 A 
HETATM   17  C   UNL     1       9.449 -13.758 -19.605  1.00  0.00     0.087 A 
HETATM   18  N   UNL     1      10.720 -13.670 -19.083  1.00  0.00    -0.344 N 
HETATM   19  C   UNL     1      11.954 -13.315 -19.798  1.00  0.00     0.157 C 
HETATM   20  C   UNL     1      11.855 -13.918 -16.902  1.00  0.00     0.032 A 
HETATM   21  C   UNL     1      11.698 -14.175 -15.531  1.00  0.00     0.016 A 
BRANCH  17  22
HETATM   22  C   UNL     1       9.021 -13.646 -21.036  1.00  0.00    -0.002 A 
HETATM   23  C   UNL     1       9.202 -12.480 -21.801  1.00  0.00     0.016 A 
HETATM   24  C   UNL     1       8.808 -12.427 -23.141  1.00  0.00     0.030 A 
HETATM   25  C   UNL     1       8.224 -13.543 -23.777  1.00  0.00     0.029 A 
HETATM   26  C   UNL     1       8.064 -14.718 -23.013  1.00  0.00     0.030 A 
HETATM   27  C   UNL     1       8.462 -14.768 -21.674  1.00  0.00     0.016 A 
BRANCH  25  28
HETATM   28  N   UNL     1       7.817 -13.489 -25.162  1.00  0.00    -0.390 N 
HETATM   29  C   UNL     1       7.488 -14.710 -25.887  1.00  0.00     0.149 C 
HETATM   30  C   UNL     1       7.730 -12.214 -25.861  1.00  0.00     0.149 C 
ENDBRANCH  25  28
ENDBRANCH  17  22
ENDBRANCH   4  12
BRANCH   6  31
HETATM   31  S   UNL     1       8.978 -12.575  -9.255  1.00  0.00     0.131 S 
HETATM   32  O   UNL     1       9.849 -11.382  -9.677  1.00  0.00    -0.598 OA
HETATM   33  O   UNL     1       7.695 -12.300 -10.055  1.00  0.00    -0.598 OA
BRANCH  31  34
HETATM   34  O   UNL     1       8.536 -12.256  -7.625  1.00  0.00    -0.292 OA
HETATM   35  H   UNL     1       7.809 -11.584  -7.683  1.00  0.00     0.232 HD
ENDBRANCH  31  34
ENDBRANCH   6  31
TORSDOF 5
ENDMDL
MODEL 16
REMARK VINA RESULT:      -7.3      4.835     11.873
REMARK  5 active torsions:
REMARK  status: ('A' for Active; 'I' for Inactive)
REMARK    1  A    between atoms: S_3  and  O_4 
REMARK    2  A    between atoms: S_3  and  C_15 
REMARK    3  A    between atoms: N_9  and  C_30 
REMARK    4  A    between atoms: C_11  and  C_13 
REMARK    5  A    between atoms: C_18  and  C_25 
ROOT
HETATM    1  S   UNL     1       9.486 -14.975 -16.863  1.00  0.00    -0.068 SA
HETATM    2  N   UNL     1       9.004 -12.517 -16.550  1.00  0.00    -0.344 N 
HETATM    3  C   UNL     1       9.329 -12.709 -17.872  1.00  0.00     0.053 A 
HETATM    4  C   UNL     1       9.074 -13.691 -15.837  1.00  0.00     0.087 A 
HETATM    5  C   UNL     1       9.626 -14.018 -18.228  1.00  0.00     0.057 A 
HETATM    6  C   UNL     1       9.970 -14.393 -19.535  1.00  0.00     0.097 A 
HETATM    7  C   UNL     1      10.009 -13.376 -20.524  1.00  0.00    -0.037 A 
HETATM    8  C   UNL     1       9.361 -11.707 -18.854  1.00  0.00     0.031 A 
HETATM    9  C   UNL     1       8.581 -11.200 -16.053  1.00  0.00     0.157 C 
HETATM   10  C   UNL     1       9.703 -12.044 -20.168  1.00  0.00     0.011 A 
HETATM   11  C   UNL     1      10.370 -13.683 -21.953  1.00  0.00     0.050 C 
ENDROOT
BRANCH   4  12
HETATM   12  C   UNL     1       8.873 -13.904 -14.369  1.00  0.00    -0.001 A 
HETATM   13  C   UNL     1       9.507 -13.108 -13.386  1.00  0.00     0.035 A 
HETATM   14  C   UNL     1       9.286 -13.392 -12.042  1.00  0.00     0.034 A 
HETATM   15  S   UNL     1       9.904 -12.599 -10.711  1.00  0.00    -0.069 SA
HETATM   16  C   UNL     1       8.477 -14.429 -11.616  1.00  0.00     0.052 A 
HETATM   17  C   UNL     1       9.132 -13.622  -9.596  1.00  0.00     0.087 A 
HETATM   18  N   UNL     1       8.366 -14.558 -10.254  1.00  0.00    -0.344 N 
HETATM   19  C   UNL     1       7.473 -15.559  -9.654  1.00  0.00     0.157 C 
HETATM   20  C   UNL     1       7.848 -15.239 -12.571  1.00  0.00     0.032 A 
HETATM   21  C   UNL     1       8.058 -14.981 -13.936  1.00  0.00     0.016 A 
BRANCH  17  22
HETATM   22  C   UNL     1       9.352 -13.468  -8.123  1.00  0.00    -0.002 A 
HETATM   23  C   UNL     1       8.730 -12.466  -7.355  1.00  0.00     0.016 A 
HETATM   24  C   UNL     1       8.945 -12.374  -5.978  1.00  0.00     0.030 A 
HETATM   25  C   UNL     1       9.785 -13.288  -5.305  1.00  0.00     0.029 A 
HETATM   26  C   UNL     1      10.389 -14.304  -6.074  1.00  0.00     0.030 A 
HETATM   27  C   UNL     1      10.169 -14.395  -7.451  1.00  0.00     0.016 A 
BRANCH  25  28
HETATM   28  N   UNL     1      10.008 -13.193  -3.881  1.00  0.00    -0.390 N 
HETATM   29  C   UNL     1       9.124 -12.392  -3.043  1.00  0.00     0.149 C 
HETATM   30  C   UNL     1      11.120 -13.895  -3.255  1.00  0.00     0.149 C 
ENDBRANCH  25  28
ENDBRANCH  17  22
ENDBRANCH   4  12
BRANCH   6  31
HETATM   31  S   UNL     1      10.347 -16.118 -19.926  1.00  0.00     0.131 S 
HETATM   32  O   UNL     1      11.415 -16.714 -18.996  1.00  0.00    -0.598 OA
HETATM   33  O   UNL     1       9.152 -17.035 -19.627  1.00  0.00    -0.598 OA
BRANCH  31  34
HETATM   34  O   UNL     1      10.834 -16.563 -21.513  1.00  0.00    -0.292 OA
HETATM   35  H   UNL     1      10.208 -17.282 -21.783  1.00  0.00     0.232 HD
ENDBRANCH  31  34
ENDBRANCH   6  31
TORSDOF 5
ENDMDL
MODEL 17
REMARK VINA RESULT:      -7.2      2.739      3.758
REMARK  5 active torsions:
REMARK  status: ('A' for Active; 'I' for Inactive)
REMARK    1  A    between atoms: S_3  and  O_4 
REMARK    2  A    between atoms: S_3  and  C_15 
REMARK    3  A    between atoms: N_9  and  C_30 
REMARK    4  A    between atoms: C_11  and  C_13 
REMARK    5  A    between atoms: C_18  and  C_25 
ROOT
HETATM    1  S   UNL     1      10.531 -15.221  -6.967  1.00  0.00    -0.068 SA
HETATM    2  N   UNL     1       9.451 -12.940  -6.991  1.00  0.00    -0.344 N 
HETATM    3  C   UNL     1       9.381 -13.416  -5.704  1.00  0.00     0.053 A 
HETATM    4  C   UNL     1      10.046 -13.849  -7.835  1.00  0.00     0.087 A 
HETATM    5  C   UNL     1       9.934 -14.674  -5.504  1.00  0.00     0.057 A 
HETATM    6  C   UNL     1       9.955 -15.306  -4.252  1.00  0.00     0.097 A 
HETATM    7  C   UNL     1       9.382 -14.615  -3.154  1.00  0.00    -0.037 A 
HETATM    8  C   UNL     1       8.822 -12.731  -4.615  1.00  0.00     0.031 A 
HETATM    9  C   UNL     1       8.987 -11.587  -7.331  1.00  0.00     0.157 C 
HETATM   10  C   UNL     1       8.823 -13.333  -3.351  1.00  0.00     0.011 A 
HETATM   11  C   UNL     1       9.356 -15.215  -1.773  1.00  0.00     0.050 C 
ENDROOT
BRANCH   4  12
HETATM   12  C   UNL     1      10.246 -13.756  -9.316  1.00  0.00    -0.001 A 
HETATM   13  C   UNL     1       9.184 -13.522 -10.219  1.00  0.00     0.035 A 
HETATM   14  C   UNL     1       9.455 -13.476 -11.583  1.00  0.00     0.034 A 
HETATM   15  S   UNL     1       8.384 -13.206 -12.833  1.00  0.00    -0.069 SA
HETATM   16  C   UNL     1      10.722 -13.659 -12.104  1.00  0.00     0.052 A 
HETATM   17  C   UNL     1       9.572 -13.350 -14.039  1.00  0.00     0.087 A 
HETATM   18  N   UNL     1      10.807 -13.573 -13.472  1.00  0.00    -0.344 N 
HETATM   19  C   UNL     1      12.101 -13.659 -14.162  1.00  0.00     0.157 C 
HETATM   20  C   UNL     1      11.789 -13.905 -11.229  1.00  0.00     0.032 A 
HETATM   21  C   UNL     1      11.545 -13.963  -9.847  1.00  0.00     0.016 A 
BRANCH  17  22
HETATM   22  C   UNL     1       9.216 -13.270 -15.491  1.00  0.00    -0.002 A 
HETATM   23  C   UNL     1       9.135 -12.055 -16.195  1.00  0.00     0.016 A 
HETATM   24  C   UNL     1       8.823 -12.029 -17.557  1.00  0.00     0.030 A 
HETATM   25  C   UNL     1       8.586 -13.219 -18.277  1.00  0.00     0.029 A 
HETATM   26  C   UNL     1       8.690 -14.437 -17.573  1.00  0.00     0.030 A 
HETATM   27  C   UNL     1       9.006 -14.460 -16.213  1.00  0.00     0.016 A 
BRANCH  25  28
HETATM   28  N   UNL     1       8.264 -13.192 -19.684  1.00  0.00    -0.390 N 
HETATM   29  C   UNL     1       8.457 -11.978 -20.468  1.00  0.00     0.149 C 
HETATM   30  C   UNL     1       7.737 -14.378 -20.348  1.00  0.00     0.149 C 
ENDBRANCH  25  28
ENDBRANCH  17  22
ENDBRANCH   4  12
BRANCH   6  31
HETATM   31  S   UNL     1      10.691 -16.948  -4.065  1.00  0.00     0.131 S 
HETATM   32  O   UNL     1       9.877 -18.044  -4.771  1.00  0.00    -0.598 OA
HETATM   33  O   UNL     1      12.030 -17.051  -4.810  1.00  0.00    -0.598 OA
BRANCH  31  34
HETATM   34  O   UNL     1      11.029 -17.576  -2.501  1.00  0.00    -0.292 OA
HETATM   35  H   UNL     1      10.141 -17.711  -2.080  1.00  0.00     0.232 HD
ENDBRANCH  31  34
ENDBRANCH   6  31
TORSDOF 5
ENDMDL
MODEL 18
REMARK VINA RESULT:      -7.2      5.672     12.319
REMARK  5 active torsions:
REMARK  status: ('A' for Active; 'I' for Inactive)
REMARK    1  A    between atoms: S_3  and  O_4 
REMARK    2  A    between atoms: S_3  and  C_15 
REMARK    3  A    between atoms: N_9  and  C_30 
REMARK    4  A    between atoms: C_11  and  C_13 
REMARK    5  A    between atoms: C_18  and  C_25 
ROOT
HETATM    1  S   UNL     1       8.547 -15.130 -19.609  1.00  0.00    -0.068 SA
HETATM    2  N   UNL     1       9.275 -12.718 -19.751  1.00  0.00    -0.344 N 
HETATM    3  C   UNL     1       8.935 -13.121 -21.020  1.00  0.00     0.053 A 
HETATM    4  C   UNL     1       9.140 -13.740 -18.841  1.00  0.00     0.087 A 
HETATM    5  C   UNL     1       8.505 -14.437 -21.130  1.00  0.00     0.057 A 
HETATM    6  C   UNL     1       8.112 -15.010 -22.349  1.00  0.00     0.097 A 
HETATM    7  C   UNL     1       8.162 -14.194 -23.508  1.00  0.00    -0.037 A 
HETATM    8  C   UNL     1       8.976 -12.315 -22.167  1.00  0.00     0.031 A 
HETATM    9  C   UNL     1       9.662 -11.327 -19.471  1.00  0.00     0.157 C 
HETATM   10  C   UNL     1       8.594 -12.854 -23.400  1.00  0.00     0.011 A 
HETATM   11  C   UNL     1       7.763 -14.724 -24.860  1.00  0.00     0.050 C 
ENDROOT
BRANCH   4  12
HETATM   12  C   UNL     1       9.477 -13.743 -17.382  1.00  0.00    -0.001 A 
HETATM   13  C   UNL     1       8.522 -13.466 -16.376  1.00  0.00     0.035 A 
HETATM   14  C   UNL     1       8.926 -13.463 -15.045  1.00  0.00     0.034 A 
HETATM   15  S   UNL     1       7.993 -13.178 -13.691  1.00  0.00    -0.069 SA
HETATM   16  C   UNL     1      10.228 -13.711 -14.654  1.00  0.00     0.052 A 
HETATM   17  C   UNL     1       9.294 -13.360 -12.613  1.00  0.00     0.087 A 
HETATM   18  N   UNL     1      10.445 -13.676 -13.299  1.00  0.00    -0.344 N 
HETATM   19  C   UNL     1      11.759 -14.005 -12.729  1.00  0.00     0.157 C 
HETATM   20  C   UNL     1      11.195 -13.976 -15.634  1.00  0.00     0.032 A 
HETATM   21  C   UNL     1      10.818 -13.979 -16.987  1.00  0.00     0.016 A 
BRANCH  17  22
HETATM   22  C   UNL     1       9.116 -13.145 -11.142  1.00  0.00    -0.002 A 
HETATM   23  C   UNL     1       9.596 -12.008 -10.469  1.00  0.00     0.016 A 
HETATM   24  C   UNL     1       9.387 -11.837  -9.098  1.00  0.00     0.030 A 
HETATM   25  C   UNL     1       8.679 -12.795  -8.341  1.00  0.00     0.029 A 
HETATM   26  C   UNL     1       8.179 -13.924  -9.023  1.00  0.00     0.030 A 
HETATM   27  C   UNL     1       8.387 -14.089 -10.394  1.00  0.00     0.016 A 
BRANCH  25  28
HETATM   28  N   UNL     1       8.462 -12.619  -6.924  1.00  0.00    -0.390 N 
HETATM   29  C   UNL     1       7.973 -13.721  -6.105  1.00  0.00     0.149 C 
HETATM   30  C   UNL     1       8.727 -11.336  -6.285  1.00  0.00     0.149 C 
ENDBRANCH  25  28
ENDBRANCH  17  22
ENDBRANCH   4  12
BRANCH   6  31
HETATM   31  S   UNL     1       7.565 -16.733 -22.419  1.00  0.00     0.131 S 
HETATM   32  O   UNL     1       8.580 -17.701 -21.790  1.00  0.00    -0.598 OA
HETATM   33  O   UNL     1       6.340 -16.969 -21.523  1.00  0.00    -0.598 OA
BRANCH  31  34
HETATM   34  O   UNL     1       7.133 -17.447 -23.921  1.00  0.00    -0.292 OA
HETATM   35  H   UNL     1       7.832 -17.150 -24.558  1.00  0.00     0.232 HD
ENDBRANCH  31  34
ENDBRANCH   6  31
TORSDOF 5
ENDMDL
MODEL 19
REMARK VINA RESULT:      -7.2      2.195      2.894
REMARK  5 active torsions:
REMARK  status: ('A' for Active; 'I' for Inactive)
REMARK    1  A    between atoms: S_3  and  O_4 
REMARK    2  A    between atoms: S_3  and  C_15 
REMARK    3  A    between atoms: N_9  and  C_30 
REMARK    4  A    between atoms: C_11  and  C_13 
REMARK    5  A    between atoms: C_18  and  C_25 
ROOT
HETATM    1  S   UNL     1       8.145 -14.832  -8.504  1.00  0.00    -0.068 SA
HETATM    2  N   UNL     1       8.916 -12.487  -9.032  1.00  0.00    -0.344 N 
HETATM    3  C   UNL     1       8.795 -12.583  -7.667  1.00  0.00     0.053 A 
HETATM    4  C   UNL     1       8.559 -13.659  -9.656  1.00  0.00     0.087 A 
HETATM    5  C   UNL     1       8.377 -13.820  -7.192  1.00  0.00     0.057 A 
HETATM    6  C   UNL     1       8.209 -14.095  -5.827  1.00  0.00     0.097 A 
HETATM    7  C   UNL     1       8.484 -13.052  -4.905  1.00  0.00    -0.037 A 
HETATM    8  C   UNL     1       9.074 -11.557  -6.752  1.00  0.00     0.031 A 
HETATM    9  C   UNL     1       9.434 -11.267  -9.668  1.00  0.00     0.157 C 
HETATM   10  C   UNL     1       8.915 -11.794  -5.382  1.00  0.00     0.011 A 
HETATM   11  C   UNL     1       8.329 -13.253  -3.421  1.00  0.00     0.050 C 
ENDROOT
BRANCH   4  12
HETATM   12  C   UNL     1       8.475 -13.949 -11.122  1.00  0.00    -0.001 A 
HETATM   13  C   UNL     1       9.314 -13.325 -12.075  1.00  0.00     0.035 A 
HETATM   14  C   UNL     1       9.151 -13.633 -13.422  1.00  0.00     0.034 A 
HETATM   15  S   UNL     1      10.016 -13.043 -14.721  1.00  0.00    -0.069 SA
HETATM   16  C   UNL     1       8.194 -14.519 -13.880  1.00  0.00     0.052 A 
HETATM   17  C   UNL     1       9.127 -13.929 -15.865  1.00  0.00     0.087 A 
HETATM   18  N   UNL     1       8.181 -14.709 -15.240  1.00  0.00    -0.344 N 
HETATM   19  C   UNL     1       7.279 -15.688 -15.863  1.00  0.00     0.157 C 
HETATM   20  C   UNL     1       7.343 -15.141 -12.956  1.00  0.00     0.032 A 
HETATM   21  C   UNL     1       7.480 -14.845 -11.590  1.00  0.00     0.016 A 
BRANCH  17  22
HETATM   22  C   UNL     1       9.387 -13.780 -17.333  1.00  0.00    -0.002 A 
HETATM   23  C   UNL     1      10.114 -14.722 -18.082  1.00  0.00     0.016 A 
HETATM   24  C   UNL     1      10.313 -14.555 -19.455  1.00  0.00     0.030 A 
HETATM   25  C   UNL     1       9.785 -13.440 -20.141  1.00  0.00     0.029 A 
HETATM   26  C   UNL     1       9.037 -12.509 -19.391  1.00  0.00     0.030 A 
HETATM   27  C   UNL     1       8.837 -12.681 -18.019  1.00  0.00     0.016 A 
BRANCH  25  28
HETATM   28  N   UNL     1       9.990 -13.267 -21.560  1.00  0.00    -0.390 N 
HETATM   29  C   UNL     1      11.115 -13.906 -22.232  1.00  0.00     0.149 C 
HETATM   30  C   UNL     1       9.077 -12.448 -22.348  1.00  0.00     0.149 C 
ENDBRANCH  25  28
ENDBRANCH  17  22
ENDBRANCH   4  12
BRANCH   6  31
HETATM   31  S   UNL     1       7.658 -15.728  -5.280  1.00  0.00     0.131 S 
HETATM   32  O   UNL     1       6.398 -16.205  -6.021  1.00  0.00    -0.598 OA
HETATM   33  O   UNL     1       8.662 -16.821  -5.677  1.00  0.00    -0.598 OA
BRANCH  31  34
HETATM   34  O   UNL     1       7.343 -16.029  -3.617  1.00  0.00    -0.292 OA
HETATM   35  H   UNL     1       7.225 -15.132  -3.212  1.00  0.00     0.232 HD
ENDBRANCH  31  34
ENDBRANCH   6  31
TORSDOF 5
ENDMDL
