MODEL 1
REMARK VINA RESULT:      -5.9      0.000      0.000
REMARK  2 active torsions:
REMARK  status: ('A' for Active; 'I' for Inactive)
REMARK    1  A    between atoms: N_3  and  C_15 
REMARK    2  A    between atoms: C_5  and  C_7 
ROOT
HETATM    1  S   UNL     1       9.459 -11.730 -14.919  1.00  0.00    -0.069 SA
HETATM    2  N   UNL     1       8.358 -14.003 -14.711  1.00  0.00    -0.344 N 
HETATM    3  C   UNL     1       8.411 -13.691 -16.046  1.00  0.00     0.052 A 
HETATM    4  C   UNL     1       8.932 -13.017 -13.941  1.00  0.00     0.087 A 
HETATM    5  C   UNL     1       8.990 -12.467 -16.339  1.00  0.00     0.034 A 
HETATM    6  C   UNL     1       7.923 -14.486 -17.097  1.00  0.00     0.031 A 
HETATM    7  C   UNL     1       9.120 -11.985 -17.639  1.00  0.00     0.028 A 
HETATM    8  C   UNL     1       7.691 -15.225 -14.241  1.00  0.00     0.157 C 
HETATM    9  C   UNL     1       8.639 -12.779 -18.698  1.00  0.00    -0.061 A 
HETATM   10  C   UNL     1       8.042 -14.027 -18.419  1.00  0.00     0.009 A 
HETATM   11  C   UNL     1       8.753 -12.311 -20.117  1.00  0.00     0.048 C 
ENDROOT
BRANCH   4  12
HETATM   12  C   UNL     1       9.143 -12.999 -12.458  1.00  0.00    -0.002 A 
HETATM   13  C   UNL     1       8.211 -12.451 -11.558  1.00  0.00     0.016 A 
HETATM   14  C   UNL     1       8.437 -12.475 -10.179  1.00  0.00     0.030 A 
HETATM   15  C   UNL     1       9.603 -13.059  -9.639  1.00  0.00     0.029 A 
HETATM   16  C   UNL     1      10.525 -13.628 -10.543  1.00  0.00     0.030 A 
HETATM   17  C   UNL     1      10.293 -13.605 -11.921  1.00  0.00     0.016 A 
BRANCH  15  18
HETATM   18  N   UNL     1       9.839 -13.084  -8.214  1.00  0.00    -0.390 N 
HETATM   19  C   UNL     1      10.924 -13.879  -7.656  1.00  0.00     0.149 C 
HETATM   20  C   UNL     1       8.995 -12.316  -7.309  1.00  0.00     0.149 C 
ENDBRANCH  15  18
ENDBRANCH   4  12
TORSDOF 2
ENDMDL
MODEL 2
REMARK VINA RESULT:      -5.8      0.100      1.340
REMARK  2 active torsions:
REMARK  status: ('A' for Active; 'I' for Inactive)
REMARK    1  A    between atoms: N_3  and  C_15 
REMARK    2  A    between atoms: C_5  and  C_7 
ROOT
HETATM    1  S   UNL     1       9.455 -11.789 -14.925  1.00  0.00    -0.069 SA
HETATM    2  N   UNL     1       8.402 -14.088 -14.765  1.00  0.00    -0.344 N 
HETATM    3  C   UNL     1       8.429 -13.739 -16.091  1.00  0.00     0.052 A 
HETATM    4  C   UNL     1       8.967 -13.112 -13.976  1.00  0.00     0.087 A 
HETATM    5  C   UNL     1       8.980 -12.496 -16.359  1.00  0.00     0.034 A 
HETATM    6  C   UNL     1       7.942 -14.515 -17.157  1.00  0.00     0.031 A 
HETATM    7  C   UNL     1       9.081 -11.977 -17.647  1.00  0.00     0.028 A 
HETATM    8  C   UNL     1       7.766 -15.336 -14.319  1.00  0.00     0.157 C 
HETATM    9  C   UNL     1       8.601 -12.751 -18.719  1.00  0.00    -0.061 A 
HETATM   10  C   UNL     1       8.033 -14.017 -18.467  1.00  0.00     0.009 A 
HETATM   11  C   UNL     1       8.685 -12.242 -20.127  1.00  0.00     0.048 C 
ENDROOT
BRANCH   4  12
HETATM   12  C   UNL     1       9.199 -13.130 -12.496  1.00  0.00    -0.002 A 
HETATM   13  C   UNL     1      10.313 -13.752 -11.903  1.00  0.00     0.016 A 
HETATM   14  C   UNL     1      10.502 -13.726 -10.518  1.00  0.00     0.030 A 
HETATM   15  C   UNL     1       9.590 -13.068  -9.666  1.00  0.00     0.029 A 
HETATM   16  C   UNL     1       8.486 -12.425 -10.267  1.00  0.00     0.030 A 
HETATM   17  C   UNL     1       8.303 -12.450 -11.652  1.00  0.00     0.016 A 
BRANCH  15  18
HETATM   18  N   UNL     1       9.784 -13.041  -8.236  1.00  0.00    -0.390 N 
HETATM   19  C   UNL     1       8.926 -12.225  -7.386  1.00  0.00     0.149 C 
HETATM   20  C   UNL     1      10.841 -13.827  -7.615  1.00  0.00     0.149 C 
ENDBRANCH  15  18
ENDBRANCH   4  12
TORSDOF 2
ENDMDL
MODEL 3
REMARK VINA RESULT:      -5.8      1.664      7.876
REMARK  2 active torsions:
REMARK  status: ('A' for Active; 'I' for Inactive)
REMARK    1  A    between atoms: N_3  and  C_15 
REMARK    2  A    between atoms: C_5  and  C_7 
ROOT
HETATM    1  S   UNL     1       8.069 -12.425 -11.057  1.00  0.00    -0.069 SA
HETATM    2  N   UNL     1      10.350 -13.486 -11.368  1.00  0.00    -0.344 N 
HETATM    3  C   UNL     1      10.100 -13.432 -10.019  1.00  0.00     0.052 A 
HETATM    4  C   UNL     1       9.293 -12.984 -12.095  1.00  0.00     0.087 A 
HETATM    5  C   UNL     1       8.881 -12.873  -9.671  1.00  0.00     0.034 A 
HETATM    6  C   UNL     1      10.967 -13.871  -9.004  1.00  0.00     0.031 A 
HETATM    7  C   UNL     1       8.467 -12.731  -8.349  1.00  0.00     0.028 A 
HETATM    8  C   UNL     1      11.638 -13.968 -11.885  1.00  0.00     0.157 C 
HETATM    9  C   UNL     1       9.327 -13.174  -7.327  1.00  0.00    -0.061 A 
HETATM   10  C   UNL     1      10.574 -13.742  -7.662  1.00  0.00     0.009 A 
HETATM   11  C   UNL     1       8.932 -13.047  -5.886  1.00  0.00     0.048 C 
ENDROOT
BRANCH   4  12
HETATM   12  C   UNL     1       9.132 -12.928 -13.583  1.00  0.00    -0.002 A 
HETATM   13  C   UNL     1       9.358 -11.760 -14.334  1.00  0.00     0.016 A 
HETATM   14  C   UNL     1       9.218 -11.758 -15.725  1.00  0.00     0.030 A 
HETATM   15  C   UNL     1       8.854 -12.926 -16.426  1.00  0.00     0.029 A 
HETATM   16  C   UNL     1       8.650 -14.101 -15.672  1.00  0.00     0.030 A 
HETATM   17  C   UNL     1       8.796 -14.101 -14.282  1.00  0.00     0.016 A 
BRANCH  15  18
HETATM   18  N   UNL     1       8.707 -12.924 -17.863  1.00  0.00    -0.390 N 
HETATM   19  C   UNL     1       9.214 -11.814 -18.659  1.00  0.00     0.149 C 
HETATM   20  C   UNL     1       8.049 -14.031 -18.543  1.00  0.00     0.149 C 
ENDBRANCH  15  18
ENDBRANCH   4  12
TORSDOF 2
ENDMDL
MODEL 4
REMARK VINA RESULT:      -5.6      1.950      7.920
REMARK  2 active torsions:
REMARK  status: ('A' for Active; 'I' for Inactive)
REMARK    1  A    between atoms: N_3  and  C_15 
REMARK    2  A    between atoms: C_5  and  C_7 
ROOT
HETATM    1  S   UNL     1      11.413 -13.962 -10.952  1.00  0.00    -0.069 SA
HETATM    2  N   UNL     1       9.058 -13.036 -10.825  1.00  0.00    -0.344 N 
HETATM    3  C   UNL     1       9.511 -13.188  -9.539  1.00  0.00     0.052 A 
HETATM    4  C   UNL     1      10.017 -13.400 -11.743  1.00  0.00     0.087 A 
HETATM    5  C   UNL     1      10.798 -13.690  -9.427  1.00  0.00     0.034 A 
HETATM    6  C   UNL     1       8.786 -12.896  -8.371  1.00  0.00     0.031 A 
HETATM    7  C   UNL     1      11.414 -13.916  -8.199  1.00  0.00     0.028 A 
HETATM    8  C   UNL     1       7.682 -12.599 -11.101  1.00  0.00     0.157 C 
HETATM    9  C   UNL     1      10.697 -13.621  -7.025  1.00  0.00    -0.061 A 
HETATM   10  C   UNL     1       9.384 -13.113  -7.119  1.00  0.00     0.009 A 
HETATM   11  C   UNL     1      11.311 -13.844  -5.676  1.00  0.00     0.048 C 
ENDROOT
BRANCH   4  12
HETATM   12  C   UNL     1       9.954 -13.318 -13.238  1.00  0.00    -0.002 A 
HETATM   13  C   UNL     1       9.575 -12.152 -13.925  1.00  0.00     0.016 A 
HETATM   14  C   UNL     1       9.551 -12.113 -15.323  1.00  0.00     0.030 A 
HETATM   15  C   UNL     1       9.914 -13.237 -16.093  1.00  0.00     0.029 A 
HETATM   16  C   UNL     1      10.316 -14.399 -15.399  1.00  0.00     0.030 A 
HETATM   17  C   UNL     1      10.343 -14.433 -14.003  1.00  0.00     0.016 A 
BRANCH  15  18
HETATM   18  N   UNL     1       9.889 -13.198 -17.536  1.00  0.00    -0.390 N 
HETATM   19  C   UNL     1      10.894 -13.909 -18.315  1.00  0.00     0.149 C 
HETATM   20  C   UNL     1       8.860 -12.446 -18.241  1.00  0.00     0.149 C 
ENDBRANCH  15  18
ENDBRANCH   4  12
TORSDOF 2
ENDMDL
MODEL 5
REMARK VINA RESULT:      -5.6      2.632      4.869
REMARK  2 active torsions:
REMARK  status: ('A' for Active; 'I' for Inactive)
REMARK    1  A    between atoms: N_3  and  C_15 
REMARK    2  A    between atoms: C_5  and  C_7 
ROOT
HETATM    1  S   UNL     1       9.431 -11.729 -10.049  1.00  0.00    -0.069 SA
HETATM    2  N   UNL     1       8.375 -14.023  -9.842  1.00  0.00    -0.344 N 
HETATM    3  C   UNL     1       8.418 -13.707 -11.177  1.00  0.00     0.052 A 
HETATM    4  C   UNL     1       8.932 -13.027  -9.072  1.00  0.00     0.087 A 
HETATM    5  C   UNL     1       8.973 -12.472 -11.470  1.00  0.00     0.034 A 
HETATM    6  C   UNL     1       7.943 -14.511 -12.228  1.00  0.00     0.031 A 
HETATM    7  C   UNL     1       9.089 -11.986 -12.769  1.00  0.00     0.028 A 
HETATM    8  C   UNL     1       7.733 -15.258  -9.372  1.00  0.00     0.157 C 
HETATM    9  C   UNL     1       8.622 -12.787 -13.827  1.00  0.00    -0.061 A 
HETATM   10  C   UNL     1       8.050 -14.047 -13.549  1.00  0.00     0.009 A 
HETATM   11  C   UNL     1       8.723 -12.315 -15.247  1.00  0.00     0.048 C 
ENDROOT
BRANCH   4  12
HETATM   12  C   UNL     1       9.146 -13.007  -7.589  1.00  0.00    -0.002 A 
HETATM   13  C   UNL     1       8.237 -12.418  -6.692  1.00  0.00     0.016 A 
HETATM   14  C   UNL     1       8.465 -12.442  -5.313  1.00  0.00     0.030 A 
HETATM   15  C   UNL     1       9.609 -13.065  -4.771  1.00  0.00     0.029 A 
HETATM   16  C   UNL     1      10.507 -13.674  -5.673  1.00  0.00     0.030 A 
HETATM   17  C   UNL     1      10.273 -13.652  -7.050  1.00  0.00     0.016 A 
BRANCH  15  18
HETATM   18  N   UNL     1       9.847 -13.089  -3.347  1.00  0.00    -0.390 N 
HETATM   19  C   UNL     1      10.917 -13.904  -2.787  1.00  0.00     0.149 C 
HETATM   20  C   UNL     1       9.021 -12.301  -2.443  1.00  0.00     0.149 C 
ENDBRANCH  15  18
ENDBRANCH   4  12
TORSDOF 2
ENDMDL
MODEL 6
REMARK VINA RESULT:      -5.6      1.616      7.891
REMARK  2 active torsions:
REMARK  status: ('A' for Active; 'I' for Inactive)
REMARK    1  A    between atoms: N_3  and  C_15 
REMARK    2  A    between atoms: C_5  and  C_7 
ROOT
HETATM    1  S   UNL     1       8.383 -12.078 -10.949  1.00  0.00    -0.069 SA
HETATM    2  N   UNL     1      10.346 -13.664 -11.176  1.00  0.00    -0.344 N 
HETATM    3  C   UNL     1      10.160 -13.427  -9.838  1.00  0.00     0.052 A 
HETATM    4  C   UNL     1       9.411 -13.001 -11.939  1.00  0.00     0.087 A 
HETATM    5  C   UNL     1       9.114 -12.570  -9.534  1.00  0.00     0.034 A 
HETATM    6  C   UNL     1      10.935 -13.959  -8.792  1.00  0.00     0.031 A 
HETATM    7  C   UNL     1       8.788 -12.212  -8.228  1.00  0.00     0.028 A 
HETATM    8  C   UNL     1      11.471 -14.479 -11.656  1.00  0.00     0.157 C 
HETATM    9  C   UNL     1       9.555 -12.745  -7.176  1.00  0.00    -0.061 A 
HETATM   10  C   UNL     1      10.626 -13.617  -7.466  1.00  0.00     0.009 A 
HETATM   11  C   UNL     1       9.248 -12.395  -5.751  1.00  0.00     0.048 C 
ENDROOT
BRANCH   4  12
HETATM   12  C   UNL     1       9.219 -13.048 -13.424  1.00  0.00    -0.002 A 
HETATM   13  C   UNL     1       8.681 -14.163 -14.091  1.00  0.00     0.016 A 
HETATM   14  C   UNL     1       8.498 -14.156 -15.477  1.00  0.00     0.030 A 
HETATM   15  C   UNL     1       8.837 -13.029 -16.255  1.00  0.00     0.029 A 
HETATM   16  C   UNL     1       9.355 -11.904 -15.579  1.00  0.00     0.030 A 
HETATM   17  C   UNL     1       9.532 -11.913 -14.193  1.00  0.00     0.016 A 
BRANCH  15  18
HETATM   18  N   UNL     1       8.649 -13.021 -17.687  1.00  0.00    -0.390 N 
HETATM   19  C   UNL     1       7.955 -14.117 -18.350  1.00  0.00     0.149 C 
HETATM   20  C   UNL     1       9.150 -11.918 -18.495  1.00  0.00     0.149 C 
ENDBRANCH  15  18
ENDBRANCH   4  12
TORSDOF 2
ENDMDL
MODEL 7
REMARK VINA RESULT:      -5.6      1.659      2.024
REMARK  2 active torsions:
REMARK  status: ('A' for Active; 'I' for Inactive)
REMARK    1  A    between atoms: N_3  and  C_15 
REMARK    2  A    between atoms: C_5  and  C_7 
ROOT
HETATM    1  S   UNL     1       8.242 -12.460 -15.581  1.00  0.00    -0.069 SA
HETATM    2  N   UNL     1      10.352 -13.828 -15.265  1.00  0.00    -0.344 N 
HETATM    3  C   UNL     1      10.250 -13.529 -16.600  1.00  0.00     0.052 A 
HETATM    4  C   UNL     1       9.315 -13.277 -14.546  1.00  0.00     0.087 A 
HETATM    5  C   UNL     1       9.140 -12.776 -16.950  1.00  0.00     0.034 A 
HETATM    6  C   UNL     1      11.149 -13.929 -17.604  1.00  0.00     0.031 A 
HETATM    7  C   UNL     1       8.874 -12.389 -18.260  1.00  0.00     0.028 A 
HETATM    8  C   UNL     1      11.425 -14.694 -14.758  1.00  0.00     0.157 C 
HETATM    9  C   UNL     1       9.773 -12.781 -19.270  1.00  0.00    -0.061 A 
HETATM   10  C   UNL     1      10.907 -13.551 -18.934  1.00  0.00     0.009 A 
HETATM   11  C   UNL     1       9.537 -12.391 -20.698  1.00  0.00     0.048 C 
ENDROOT
BRANCH   4  12
HETATM   12  C   UNL     1       9.092 -13.304 -13.065  1.00  0.00    -0.002 A 
HETATM   13  C   UNL     1       8.909 -14.495 -12.340  1.00  0.00     0.016 A 
HETATM   14  C   UNL     1       8.726 -14.476 -10.954  1.00  0.00     0.030 A 
HETATM   15  C   UNL     1       8.728 -13.264 -10.232  1.00  0.00     0.029 A 
HETATM   16  C   UNL     1       8.935 -12.073 -10.960  1.00  0.00     0.030 A 
HETATM   17  C   UNL     1       9.122 -12.097 -12.344  1.00  0.00     0.016 A 
BRANCH  15  18
HETATM   18  N   UNL     1       8.539 -13.243  -8.800  1.00  0.00    -0.390 N 
HETATM   19  C   UNL     1       7.843 -14.333  -8.128  1.00  0.00     0.149 C 
HETATM   20  C   UNL     1       9.038 -12.132  -8.001  1.00  0.00     0.149 C 
ENDBRANCH  15  18
ENDBRANCH   4  12
TORSDOF 2
ENDMDL
MODEL 8
REMARK VINA RESULT:      -5.6      2.150      7.921
REMARK  2 active torsions:
REMARK  status: ('A' for Active; 'I' for Inactive)
REMARK    1  A    between atoms: N_3  and  C_15 
REMARK    2  A    between atoms: C_5  and  C_7 
ROOT
HETATM    1  S   UNL     1       9.870 -12.102 -10.021  1.00  0.00    -0.069 SA
HETATM    2  N   UNL     1       8.450 -14.179 -10.324  1.00  0.00    -0.344 N 
HETATM    3  C   UNL     1       8.393 -13.830  -8.998  1.00  0.00     0.052 A 
HETATM    4  C   UNL     1       9.218 -13.292 -11.045  1.00  0.00     0.087 A 
HETATM    5  C   UNL     1       9.123 -12.703  -8.657  1.00  0.00     0.034 A 
HETATM    6  C   UNL     1       7.687 -14.518  -7.996  1.00  0.00     0.031 A 
HETATM    7  C   UNL     1       9.186 -12.210  -7.356  1.00  0.00     0.028 A 
HETATM    8  C   UNL     1       7.801 -15.401 -10.818  1.00  0.00     0.157 C 
HETATM    9  C   UNL     1       8.477 -12.890  -6.348  1.00  0.00    -0.061 A 
HETATM   10  C   UNL     1       7.731 -14.042  -6.676  1.00  0.00     0.009 A 
HETATM   11  C   UNL     1       8.507 -12.404  -4.930  1.00  0.00     0.048 C 
ENDROOT
BRANCH   4  12
HETATM   12  C   UNL     1       9.475 -13.270 -12.521  1.00  0.00    -0.002 A 
HETATM   13  C   UNL     1      10.656 -13.766 -13.100  1.00  0.00     0.016 A 
HETATM   14  C   UNL     1      10.845 -13.745 -14.485  1.00  0.00     0.030 A 
HETATM   15  C   UNL     1       9.855 -13.236 -15.352  1.00  0.00     0.029 A 
HETATM   16  C   UNL     1       8.662 -12.759 -14.768  1.00  0.00     0.030 A 
HETATM   17  C   UNL     1       8.475 -12.786 -13.384  1.00  0.00     0.016 A 
BRANCH  15  18
HETATM   18  N   UNL     1      10.050 -13.213 -16.782  1.00  0.00    -0.390 N 
HETATM   19  C   UNL     1      11.172 -13.917 -17.390  1.00  0.00     0.149 C 
HETATM   20  C   UNL     1       9.130 -12.485 -17.645  1.00  0.00     0.149 C 
ENDBRANCH  15  18
ENDBRANCH   4  12
TORSDOF 2
ENDMDL
MODEL 9
REMARK VINA RESULT:      -5.5      1.652      1.928
REMARK  2 active torsions:
REMARK  status: ('A' for Active; 'I' for Inactive)
REMARK    1  A    between atoms: N_3  and  C_15 
REMARK    2  A    between atoms: C_5  and  C_7 
ROOT
HETATM    1  S   UNL     1       8.254 -12.485 -15.437  1.00  0.00    -0.069 SA
HETATM    2  N   UNL     1      10.395 -13.799 -15.106  1.00  0.00    -0.344 N 
HETATM    3  C   UNL     1      10.269 -13.547 -16.449  1.00  0.00     0.052 A 
HETATM    4  C   UNL     1       9.357 -13.245 -14.391  1.00  0.00     0.087 A 
HETATM    5  C   UNL     1       9.139 -12.829 -16.807  1.00  0.00     0.034 A 
HETATM    6  C   UNL     1      11.163 -13.963 -17.451  1.00  0.00     0.031 A 
HETATM    7  C   UNL     1       8.848 -12.492 -18.126  1.00  0.00     0.028 A 
HETATM    8  C   UNL     1      11.493 -14.626 -14.585  1.00  0.00     0.157 C 
HETATM    9  C   UNL     1       9.740 -12.899 -19.135  1.00  0.00    -0.061 A 
HETATM   10  C   UNL     1      10.894 -13.635 -18.789  1.00  0.00     0.009 A 
HETATM   11  C   UNL     1       9.477 -12.563 -20.571  1.00  0.00     0.048 C 
ENDROOT
BRANCH   4  12
HETATM   12  C   UNL     1       9.154 -13.227 -12.906  1.00  0.00    -0.002 A 
HETATM   13  C   UNL     1       9.197 -12.047 -12.143  1.00  0.00     0.016 A 
HETATM   14  C   UNL     1       8.981 -12.072 -10.762  1.00  0.00     0.030 A 
HETATM   15  C   UNL     1       8.702 -13.279 -10.086  1.00  0.00     0.029 A 
HETATM   16  C   UNL     1       8.638 -14.458 -10.860  1.00  0.00     0.030 A 
HETATM   17  C   UNL     1       8.850 -14.427 -12.240  1.00  0.00     0.016 A 
BRANCH  15  18
HETATM   18  N   UNL     1       8.480 -13.307  -8.660  1.00  0.00    -0.390 N 
HETATM   19  C   UNL     1       8.915 -12.200  -7.819  1.00  0.00     0.149 C 
HETATM   20  C   UNL     1       7.816 -14.443  -8.034  1.00  0.00     0.149 C 
ENDBRANCH  15  18
ENDBRANCH   4  12
TORSDOF 2
ENDMDL
MODEL 10
REMARK VINA RESULT:      -5.5      2.447      8.555
REMARK  2 active torsions:
REMARK  status: ('A' for Active; 'I' for Inactive)
REMARK    1  A    between atoms: N_3  and  C_15 
REMARK    2  A    between atoms: C_5  and  C_7 
ROOT
HETATM    1  S   UNL     1       8.056 -12.454 -15.695  1.00  0.00    -0.069 SA
HETATM    2  N   UNL     1      10.331 -13.526 -16.001  1.00  0.00    -0.344 N 
HETATM    3  C   UNL     1      10.095 -13.437 -14.652  1.00  0.00     0.052 A 
HETATM    4  C   UNL     1       9.269 -13.042 -16.730  1.00  0.00     0.087 A 
HETATM    5  C   UNL     1       8.880 -12.867 -14.306  1.00  0.00     0.034 A 
HETATM    6  C   UNL     1      10.971 -13.851 -13.634  1.00  0.00     0.031 A 
HETATM    7  C   UNL     1       8.479 -12.690 -12.985  1.00  0.00     0.028 A 
HETATM    8  C   UNL     1      11.613 -14.024 -16.518  1.00  0.00     0.157 C 
HETATM    9  C   UNL     1       9.348 -13.108 -11.960  1.00  0.00    -0.061 A 
HETATM   10  C   UNL     1      10.591 -13.687 -12.292  1.00  0.00     0.009 A 
HETATM   11  C   UNL     1       8.968 -12.943 -10.519  1.00  0.00     0.048 C 
ENDROOT
BRANCH   4  12
HETATM   12  C   UNL     1       9.093 -13.024 -18.218  1.00  0.00    -0.002 A 
HETATM   13  C   UNL     1       9.518 -11.954 -19.026  1.00  0.00     0.016 A 
HETATM   14  C   UNL     1       9.354 -11.988 -20.414  1.00  0.00     0.030 A 
HETATM   15  C   UNL     1       8.767 -13.099 -21.055  1.00  0.00     0.029 A 
HETATM   16  C   UNL     1       8.363 -14.180 -20.243  1.00  0.00     0.030 A 
HETATM   17  C   UNL     1       8.532 -14.144 -18.857  1.00  0.00     0.016 A 
BRANCH  15  18
HETATM   18  N   UNL     1       8.596 -13.135 -22.489  1.00  0.00    -0.390 N 
HETATM   19  C   UNL     1       7.892 -14.240 -23.125  1.00  0.00     0.149 C 
HETATM   20  C   UNL     1       9.126 -12.067 -23.326  1.00  0.00     0.149 C 
ENDBRANCH  15  18
ENDBRANCH   4  12
TORSDOF 2
ENDMDL
MODEL 11
REMARK VINA RESULT:      -5.5      2.561      4.795
REMARK  2 active torsions:
REMARK  status: ('A' for Active; 'I' for Inactive)
REMARK    1  A    between atoms: N_3  and  C_15 
REMARK    2  A    between atoms: C_5  and  C_7 
ROOT
HETATM    1  S   UNL     1       9.429 -11.759 -19.655  1.00  0.00    -0.069 SA
HETATM    2  N   UNL     1       8.334 -14.033 -19.435  1.00  0.00    -0.344 N 
HETATM    3  C   UNL     1       8.385 -13.727 -20.772  1.00  0.00     0.052 A 
HETATM    4  C   UNL     1       8.907 -13.042 -18.671  1.00  0.00     0.087 A 
HETATM    5  C   UNL     1       8.961 -12.503 -21.072  1.00  0.00     0.034 A 
HETATM    6  C   UNL     1       7.898 -14.529 -21.819  1.00  0.00     0.031 A 
HETATM    7  C   UNL     1       9.087 -12.028 -22.374  1.00  0.00     0.028 A 
HETATM    8  C   UNL     1       7.671 -15.255 -18.958  1.00  0.00     0.157 C 
HETATM    9  C   UNL     1       8.607 -12.828 -23.428  1.00  0.00    -0.061 A 
HETATM   10  C   UNL     1       8.014 -14.076 -23.142  1.00  0.00     0.009 A 
HETATM   11  C   UNL     1       8.718 -12.367 -24.850  1.00  0.00     0.048 C 
ENDROOT
BRANCH   4  12
HETATM   12  C   UNL     1       9.119 -13.016 -17.188  1.00  0.00    -0.002 A 
HETATM   13  C   UNL     1       8.177 -12.486 -16.288  1.00  0.00     0.016 A 
HETATM   14  C   UNL     1       8.407 -12.503 -14.909  1.00  0.00     0.030 A 
HETATM   15  C   UNL     1       9.585 -13.059 -14.370  1.00  0.00     0.029 A 
HETATM   16  C   UNL     1      10.518 -13.610 -15.274  1.00  0.00     0.030 A 
HETATM   17  C   UNL     1      10.283 -13.596 -16.651  1.00  0.00     0.016 A 
BRANCH  15  18
HETATM   18  N   UNL     1       9.824 -13.076 -12.946  1.00  0.00    -0.390 N 
HETATM   19  C   UNL     1       9.014 -12.262 -12.048  1.00  0.00     0.149 C 
HETATM   20  C   UNL     1      10.879 -13.905 -12.379  1.00  0.00     0.149 C 
ENDBRANCH  15  18
ENDBRANCH   4  12
TORSDOF 2
ENDMDL
MODEL 12
REMARK VINA RESULT:      -5.5      2.141      3.939
REMARK  2 active torsions:
REMARK  status: ('A' for Active; 'I' for Inactive)
REMARK    1  A    between atoms: N_3  and  C_15 
REMARK    2  A    between atoms: C_5  and  C_7 
ROOT
HETATM    1  S   UNL     1       7.982 -12.902 -11.583  1.00  0.00    -0.069 SA
HETATM    2  N   UNL     1      10.394 -13.619 -11.284  1.00  0.00    -0.344 N 
HETATM    3  C   UNL     1      10.184 -13.427 -12.626  1.00  0.00     0.052 A 
HETATM    4  C   UNL     1       9.262 -13.338 -10.553  1.00  0.00     0.087 A 
HETATM    5  C   UNL     1       8.902 -13.028 -12.968  1.00  0.00     0.034 A 
HETATM    6  C   UNL     1      11.136 -13.615 -13.643  1.00  0.00     0.031 A 
HETATM    7  C   UNL     1       8.509 -12.796 -14.283  1.00  0.00     0.028 A 
HETATM    8  C   UNL     1      11.677 -14.129 -10.779  1.00  0.00     0.157 C 
HETATM    9  C   UNL     1       9.458 -12.976 -15.306  1.00  0.00    -0.061 A 
HETATM   10  C   UNL     1      10.768 -13.386 -14.979  1.00  0.00     0.009 A 
HETATM   11  C   UNL     1       9.092 -12.740 -16.740  1.00  0.00     0.048 C 
ENDROOT
BRANCH   4  12
HETATM   12  C   UNL     1       9.088 -13.350  -9.064  1.00  0.00    -0.002 A 
HETATM   13  C   UNL     1       8.913 -14.533  -8.323  1.00  0.00     0.016 A 
HETATM   14  C   UNL     1       8.777 -14.500  -6.932  1.00  0.00     0.030 A 
HETATM   15  C   UNL     1       8.820 -13.282  -6.221  1.00  0.00     0.029 A 
HETATM   16  C   UNL     1       9.018 -12.100  -6.966  1.00  0.00     0.030 A 
HETATM   17  C   UNL     1       9.158 -12.138  -8.356  1.00  0.00     0.016 A 
BRANCH  15  18
HETATM   18  N   UNL     1       8.679 -13.247  -4.784  1.00  0.00    -0.390 N 
HETATM   19  C   UNL     1       7.967 -14.307  -4.083  1.00  0.00     0.149 C 
HETATM   20  C   UNL     1       9.244 -12.151  -4.010  1.00  0.00     0.149 C 
ENDBRANCH  15  18
ENDBRANCH   4  12
TORSDOF 2
ENDMDL
MODEL 13
REMARK VINA RESULT:      -5.5      1.858      7.892
REMARK  2 active torsions:
REMARK  status: ('A' for Active; 'I' for Inactive)
REMARK    1  A    between atoms: N_3  and  C_15 
REMARK    2  A    between atoms: C_5  and  C_7 
ROOT
HETATM    1  S   UNL     1       8.585 -12.881 -12.805  1.00  0.00    -0.069 SA
HETATM    2  N   UNL     1      10.956 -13.569 -13.376  1.00  0.00    -0.344 N 
HETATM    3  C   UNL     1      10.831 -13.611 -12.010  1.00  0.00     0.052 A 
HETATM    4  C   UNL     1       9.773 -13.204 -13.977  1.00  0.00     0.087 A 
HETATM    5  C   UNL     1       9.582 -13.260 -11.524  1.00  0.00     0.034 A 
HETATM    6  C   UNL     1      11.847 -13.957 -11.101  1.00  0.00     0.031 A 
HETATM    7  C   UNL     1       9.280 -13.239 -10.165  1.00  0.00     0.028 A 
HETATM    8  C   UNL     1      12.245 -13.828 -14.031  1.00  0.00     0.157 C 
HETATM    9  C   UNL     1      10.290 -13.589  -9.249  1.00  0.00    -0.061 A 
HETATM   10  C   UNL     1      11.570 -13.946  -9.725  1.00  0.00     0.009 A 
HETATM   11  C   UNL     1      10.021 -13.585  -7.775  1.00  0.00     0.048 C 
ENDROOT
BRANCH   4  12
HETATM   12  C   UNL     1       9.463 -13.109 -15.440  1.00  0.00    -0.002 A 
HETATM   13  C   UNL     1       9.309 -14.238 -16.265  1.00  0.00     0.016 A 
HETATM   14  C   UNL     1       8.998 -14.104 -17.621  1.00  0.00     0.030 A 
HETATM   15  C   UNL     1       8.818 -12.834 -18.209  1.00  0.00     0.029 A 
HETATM   16  C   UNL     1       8.951 -11.705 -17.373  1.00  0.00     0.030 A 
HETATM   17  C   UNL     1       9.257 -11.843 -16.017  1.00  0.00     0.016 A 
BRANCH  15  18
HETATM   18  N   UNL     1       8.497 -12.694 -19.610  1.00  0.00    -0.390 N 
HETATM   19  C   UNL     1       7.646 -13.670 -20.277  1.00  0.00     0.149 C 
HETATM   20  C   UNL     1       9.020 -11.577 -20.384  1.00  0.00     0.149 C 
ENDBRANCH  15  18
ENDBRANCH   4  12
TORSDOF 2
ENDMDL
MODEL 14
REMARK VINA RESULT:      -5.5      1.903      2.297
REMARK  2 active torsions:
REMARK  status: ('A' for Active; 'I' for Inactive)
REMARK    1  A    between atoms: N_3  and  C_15 
REMARK    2  A    between atoms: C_5  and  C_7 
ROOT
HETATM    1  S   UNL     1      11.341 -13.822 -15.716  1.00  0.00    -0.069 SA
HETATM    2  N   UNL     1       8.978 -12.995 -16.113  1.00  0.00    -0.344 N 
HETATM    3  C   UNL     1       9.554 -13.203 -17.341  1.00  0.00     0.052 A 
HETATM    4  C   UNL     1       9.841 -13.322 -15.091  1.00  0.00     0.087 A 
HETATM    5  C   UNL     1      10.862 -13.661 -17.305  1.00  0.00     0.034 A 
HETATM    6  C   UNL     1       8.942 -12.977 -18.586  1.00  0.00     0.031 A 
HETATM    7  C   UNL     1      11.602 -13.918 -18.456  1.00  0.00     0.028 A 
HETATM    8  C   UNL     1       7.629 -12.425 -15.992  1.00  0.00     0.157 C 
HETATM    9  C   UNL     1      10.994 -13.700 -19.706  1.00  0.00    -0.061 A 
HETATM   10  C   UNL     1       9.665 -13.229 -19.763  1.00  0.00     0.009 A 
HETATM   11  C   UNL     1      11.744 -13.960 -20.978  1.00  0.00     0.048 C 
ENDROOT
BRANCH   4  12
HETATM   12  C   UNL     1       9.582 -13.311 -13.616  1.00  0.00    -0.002 A 
HETATM   13  C   UNL     1       9.191 -12.155 -12.916  1.00  0.00     0.016 A 
HETATM   14  C   UNL     1       8.938 -12.194 -11.542  1.00  0.00     0.030 A 
HETATM   15  C   UNL     1       9.057 -13.393 -10.809  1.00  0.00     0.029 A 
HETATM   16  C   UNL     1       9.428 -14.555 -11.519  1.00  0.00     0.030 A 
HETATM   17  C   UNL     1       9.676 -14.513 -12.893  1.00  0.00     0.016 A 
BRANCH  15  18
HETATM   18  N   UNL     1       8.797 -13.434  -9.389  1.00  0.00    -0.390 N 
HETATM   19  C   UNL     1       9.210 -12.335  -8.527  1.00  0.00     0.149 C 
HETATM   20  C   UNL     1       8.118 -14.576  -8.791  1.00  0.00     0.149 C 
ENDBRANCH  15  18
ENDBRANCH   4  12
TORSDOF 2
ENDMDL
MODEL 15
REMARK VINA RESULT:      -5.4      2.353      8.230
REMARK  2 active torsions:
REMARK  status: ('A' for Active; 'I' for Inactive)
REMARK    1  A    between atoms: N_3  and  C_15 
REMARK    2  A    between atoms: C_5  and  C_7 
ROOT
HETATM    1  S   UNL     1       8.426 -12.792 -14.731  1.00  0.00    -0.069 SA
HETATM    2  N   UNL     1      10.862 -13.483 -14.642  1.00  0.00    -0.344 N 
HETATM    3  C   UNL     1      10.401 -13.430 -13.351  1.00  0.00     0.052 A 
HETATM    4  C   UNL     1       9.867 -13.180 -15.544  1.00  0.00     0.087 A 
HETATM    5  C   UNL     1       9.072 -13.063 -13.218  1.00  0.00     0.034 A 
HETATM    6  C   UNL     1      11.158 -13.694 -12.196  1.00  0.00     0.031 A 
HETATM    7  C   UNL     1       8.441 -12.949 -11.982  1.00  0.00     0.028 A 
HETATM    8  C   UNL     1      12.274 -13.769 -14.936  1.00  0.00     0.157 C 
HETATM    9  C   UNL     1       9.190 -13.218 -10.821  1.00  0.00    -0.061 A 
HETATM   10  C   UNL     1      10.546 -13.589 -10.936  1.00  0.00     0.009 A 
HETATM   11  C   UNL     1       8.562 -13.112  -9.464  1.00  0.00     0.048 C 
ENDROOT
BRANCH   4  12
HETATM   12  C   UNL     1       9.932 -13.194 -17.041  1.00  0.00    -0.002 A 
HETATM   13  C   UNL     1      10.661 -14.153 -17.767  1.00  0.00     0.016 A 
HETATM   14  C   UNL     1      10.677 -14.143 -19.165  1.00  0.00     0.030 A 
HETATM   15  C   UNL     1       9.954 -13.178 -19.898  1.00  0.00     0.029 A 
HETATM   16  C   UNL     1       9.206 -12.232 -19.166  1.00  0.00     0.030 A 
HETATM   17  C   UNL     1       9.189 -12.247 -17.769  1.00  0.00     0.016 A 
BRANCH  15  18
HETATM   18  N   UNL     1       9.970 -13.166 -21.342  1.00  0.00    -0.390 N 
HETATM   19  C   UNL     1       8.977 -12.404 -22.088  1.00  0.00     0.149 C 
HETATM   20  C   UNL     1      10.977 -13.916 -22.079  1.00  0.00     0.149 C 
ENDBRANCH  15  18
ENDBRANCH   4  12
TORSDOF 2
ENDMDL
MODEL 16
REMARK VINA RESULT:      -5.4      2.047      7.966
REMARK  2 active torsions:
REMARK  status: ('A' for Active; 'I' for Inactive)
REMARK    1  A    between atoms: N_3  and  C_15 
REMARK    2  A    between atoms: C_5  and  C_7 
ROOT
HETATM    1  S   UNL     1      10.077 -15.049 -10.890  1.00  0.00    -0.069 SA
HETATM    2  N   UNL     1       9.324 -12.631 -10.810  1.00  0.00    -0.344 N 
HETATM    3  C   UNL     1       9.467 -13.061  -9.515  1.00  0.00     0.052 A 
HETATM    4  C   UNL     1       9.655 -13.620 -11.708  1.00  0.00     0.087 A 
HETATM    5  C   UNL     1       9.879 -14.377  -9.377  1.00  0.00     0.034 A 
HETATM    6  C   UNL     1       9.220 -12.296  -8.362  1.00  0.00     0.031 A 
HETATM    7  C   UNL     1      10.067 -14.981  -8.137  1.00  0.00     0.028 A 
HETATM    8  C   UNL     1       8.808 -11.289 -11.114  1.00  0.00     0.157 C 
HETATM    9  C   UNL     1       9.828 -14.220  -6.978  1.00  0.00    -0.061 A 
HETATM   10  C   UNL     1       9.404 -12.880  -7.098  1.00  0.00     0.009 A 
HETATM   11  C   UNL     1      10.015 -14.819  -5.616  1.00  0.00     0.048 C 
ENDROOT
BRANCH   4  12
HETATM   12  C   UNL     1       9.705 -13.541 -13.204  1.00  0.00    -0.002 A 
HETATM   13  C   UNL     1       8.555 -13.408 -14.002  1.00  0.00     0.016 A 
HETATM   14  C   UNL     1       8.649 -13.316 -15.394  1.00  0.00     0.030 A 
HETATM   15  C   UNL     1       9.899 -13.342 -16.047  1.00  0.00     0.029 A 
HETATM   16  C   UNL     1      11.052 -13.453 -15.240  1.00  0.00     0.030 A 
HETATM   17  C   UNL     1      10.954 -13.541 -13.850  1.00  0.00     0.016 A 
BRANCH  15  18
HETATM   18  N   UNL     1       9.997 -13.248 -17.484  1.00  0.00    -0.390 N 
HETATM   19  C   UNL     1      11.086 -13.901 -18.198  1.00  0.00     0.149 C 
HETATM   20  C   UNL     1       9.010 -12.497 -18.248  1.00  0.00     0.149 C 
ENDBRANCH  15  18
ENDBRANCH   4  12
TORSDOF 2
ENDMDL
MODEL 17
REMARK VINA RESULT:      -5.4      2.537      8.483
REMARK  2 active torsions:
REMARK  status: ('A' for Active; 'I' for Inactive)
REMARK    1  A    between atoms: N_3  and  C_15 
REMARK    2  A    between atoms: C_5  and  C_7 
ROOT
HETATM    1  S   UNL     1      11.369 -13.983 -15.709  1.00  0.00    -0.069 SA
HETATM    2  N   UNL     1       9.067 -12.933 -15.580  1.00  0.00    -0.344 N 
HETATM    3  C   UNL     1       9.517 -13.099 -14.294  1.00  0.00     0.052 A 
HETATM    4  C   UNL     1      10.002 -13.354 -16.498  1.00  0.00     0.087 A 
HETATM    5  C   UNL     1      10.776 -13.668 -14.183  1.00  0.00     0.034 A 
HETATM    6  C   UNL     1       8.812 -12.761 -13.126  1.00  0.00     0.031 A 
HETATM    7  C   UNL     1      11.384 -13.917 -12.956  1.00  0.00     0.028 A 
HETATM    8  C   UNL     1       7.715 -12.426 -15.854  1.00  0.00     0.157 C 
HETATM    9  C   UNL     1      10.688 -13.576 -11.781  1.00  0.00    -0.061 A 
HETATM   10  C   UNL     1       9.403 -12.999 -11.875  1.00  0.00     0.009 A 
HETATM   11  C   UNL     1      11.295 -13.821 -10.433  1.00  0.00     0.048 C 
ENDROOT
BRANCH   4  12
HETATM   12  C   UNL     1       9.937 -13.280 -17.993  1.00  0.00    -0.002 A 
HETATM   13  C   UNL     1       9.562 -12.115 -18.687  1.00  0.00     0.016 A 
HETATM   14  C   UNL     1       9.536 -12.084 -20.084  1.00  0.00     0.030 A 
HETATM   15  C   UNL     1       9.894 -13.214 -20.849  1.00  0.00     0.029 A 
HETATM   16  C   UNL     1      10.290 -14.374 -20.150  1.00  0.00     0.030 A 
HETATM   17  C   UNL     1      10.319 -14.400 -18.753  1.00  0.00     0.016 A 
BRANCH  15  18
HETATM   18  N   UNL     1       9.866 -13.183 -22.292  1.00  0.00    -0.390 N 
HETATM   19  C   UNL     1       8.848 -12.417 -22.999  1.00  0.00     0.149 C 
HETATM   20  C   UNL     1      10.855 -13.917 -23.070  1.00  0.00     0.149 C 
ENDBRANCH  15  18
ENDBRANCH   4  12
TORSDOF 2
ENDMDL
MODEL 18
REMARK VINA RESULT:      -5.4      1.145      1.880
REMARK  2 active torsions:
REMARK  status: ('A' for Active; 'I' for Inactive)
REMARK    1  A    between atoms: N_3  and  C_15 
REMARK    2  A    between atoms: C_5  and  C_7 
ROOT
HETATM    1  S   UNL     1       8.422 -15.115 -14.611  1.00  0.00    -0.069 SA
HETATM    2  N   UNL     1       9.075 -12.687 -14.927  1.00  0.00    -0.344 N 
HETATM    3  C   UNL     1       8.747 -13.189 -16.161  1.00  0.00     0.052 A 
HETATM    4  C   UNL     1       8.919 -13.634 -13.940  1.00  0.00     0.087 A 
HETATM    5  C   UNL     1       8.362 -14.521 -16.168  1.00  0.00     0.034 A 
HETATM    6  C   UNL     1       8.787 -12.482 -17.375  1.00  0.00     0.031 A 
HETATM    7  C   UNL     1       8.004 -15.196 -17.332  1.00  0.00     0.028 A 
HETATM    8  C   UNL     1       9.588 -11.318 -14.774  1.00  0.00     0.157 C 
HETATM    9  C   UNL     1       8.036 -14.493 -18.550  1.00  0.00    -0.061 A 
HETATM   10  C   UNL     1       8.429 -13.137 -18.564  1.00  0.00     0.009 A 
HETATM   11  C   UNL     1       7.659 -15.169 -19.834  1.00  0.00     0.048 C 
ENDROOT
BRANCH   4  12
HETATM   12  C   UNL     1       9.099 -13.476 -12.461  1.00  0.00    -0.002 A 
HETATM   13  C   UNL     1       8.078 -13.018 -11.610  1.00  0.00     0.016 A 
HETATM   14  C   UNL     1       8.282 -12.907 -10.232  1.00  0.00     0.030 A 
HETATM   15  C   UNL     1       9.515 -13.258  -9.644  1.00  0.00     0.029 A 
HETATM   16  C   UNL     1      10.530 -13.738 -10.498  1.00  0.00     0.030 A 
HETATM   17  C   UNL     1      10.321 -13.852 -11.875  1.00  0.00     0.016 A 
BRANCH  15  18
HETATM   18  N   UNL     1       9.728 -13.142  -8.220  1.00  0.00    -0.390 N 
HETATM   19  C   UNL     1      10.797 -13.885  -7.567  1.00  0.00     0.149 C 
HETATM   20  C   UNL     1       8.877 -12.281  -7.410  1.00  0.00     0.149 C 
ENDBRANCH  15  18
ENDBRANCH   4  12
TORSDOF 2
ENDMDL
MODEL 19
REMARK VINA RESULT:      -5.4      2.698      4.194
REMARK  2 active torsions:
REMARK  status: ('A' for Active; 'I' for Inactive)
REMARK    1  A    between atoms: N_3  and  C_15 
REMARK    2  A    between atoms: C_5  and  C_7 
ROOT
HETATM    1  S   UNL     1      11.319 -13.859 -10.828  1.00  0.00    -0.069 SA
HETATM    2  N   UNL     1       8.948 -13.049 -11.210  1.00  0.00    -0.344 N 
HETATM    3  C   UNL     1       9.518 -13.253 -12.442  1.00  0.00     0.052 A 
HETATM    4  C   UNL     1       9.819 -13.371 -10.194  1.00  0.00     0.087 A 
HETATM    5  C   UNL     1      10.829 -13.702 -12.414  1.00  0.00     0.034 A 
HETATM    6  C   UNL     1       8.897 -13.032 -13.683  1.00  0.00     0.031 A 
HETATM    7  C   UNL     1      11.565 -13.953 -13.569  1.00  0.00     0.028 A 
HETATM    8  C   UNL     1       7.596 -12.489 -11.080  1.00  0.00     0.157 C 
HETATM    9  C   UNL     1      10.947 -13.740 -14.815  1.00  0.00    -0.061 A 
HETATM   10  C   UNL     1       9.615 -13.279 -14.864  1.00  0.00     0.009 A 
HETATM   11  C   UNL     1      11.692 -13.994 -16.091  1.00  0.00     0.048 C 
ENDROOT
BRANCH   4  12
HETATM   12  C   UNL     1       9.570 -13.361  -8.716  1.00  0.00    -0.002 A 
HETATM   13  C   UNL     1       9.157 -12.213  -8.017  1.00  0.00     0.016 A 
HETATM   14  C   UNL     1       8.914 -12.253  -6.641  1.00  0.00     0.030 A 
HETATM   15  C   UNL     1       9.063 -13.448  -5.906  1.00  0.00     0.029 A 
HETATM   16  C   UNL     1       9.455 -14.604  -6.616  1.00  0.00     0.030 A 
HETATM   17  C   UNL     1       9.693 -14.560  -7.992  1.00  0.00     0.016 A 
BRANCH  15  18
HETATM   18  N   UNL     1       8.813 -13.492  -4.485  1.00  0.00    -0.390 N 
HETATM   19  C   UNL     1       8.135 -14.633  -3.885  1.00  0.00     0.149 C 
HETATM   20  C   UNL     1       9.233 -12.395  -3.624  1.00  0.00     0.149 C 
ENDBRANCH  15  18
ENDBRANCH   4  12
TORSDOF 2
ENDMDL
MODEL 20
REMARK VINA RESULT:      -5.3      1.981      2.901
REMARK  2 active torsions:
REMARK  status: ('A' for Active; 'I' for Inactive)
REMARK    1  A    between atoms: N_3  and  C_15 
REMARK    2  A    between atoms: C_5  and  C_7 
ROOT
HETATM    1  S   UNL     1      11.080 -14.624 -13.678  1.00  0.00    -0.069 SA
HETATM    2  N   UNL     1       9.595 -12.689 -12.992  1.00  0.00    -0.344 N 
HETATM    3  C   UNL     1       9.567 -12.765 -14.362  1.00  0.00     0.052 A 
HETATM    4  C   UNL     1      10.378 -13.683 -12.449  1.00  0.00     0.087 A 
HETATM    5  C   UNL     1      10.335 -13.781 -14.908  1.00  0.00     0.034 A 
HETATM    6  C   UNL     1       8.855 -11.908 -15.219  1.00  0.00     0.031 A 
HETATM    7  C   UNL     1      10.431 -13.999 -16.280  1.00  0.00     0.028 A 
HETATM    8  C   UNL     1       8.903 -11.609 -12.275  1.00  0.00     0.157 C 
HETATM    9  C   UNL     1       9.716 -13.149 -17.145  1.00  0.00    -0.061 A 
HETATM   10  C   UNL     1       8.932 -12.106 -16.607  1.00  0.00     0.009 A 
HETATM   11  C   UNL     1       9.782 -13.338 -18.630  1.00  0.00     0.048 C 
ENDROOT
BRANCH   4  12
HETATM   12  C   UNL     1      10.614 -13.996 -11.003  1.00  0.00    -0.002 A 
HETATM   13  C   UNL     1      11.726 -13.516 -10.288  1.00  0.00     0.016 A 
HETATM   14  C   UNL     1      11.896 -13.815  -8.933  1.00  0.00     0.030 A 
HETATM   15  C   UNL     1      10.955 -14.598  -8.232  1.00  0.00     0.029 A 
HETATM   16  C   UNL     1       9.830 -15.059  -8.948  1.00  0.00     0.030 A 
HETATM   17  C   UNL     1       9.661 -14.755 -10.301  1.00  0.00     0.016 A 
BRANCH  15  18
HETATM   18  N   UNL     1      11.130 -14.908  -6.832  1.00  0.00    -0.390 N 
HETATM   19  C   UNL     1      11.654 -13.908  -5.911  1.00  0.00     0.149 C 
HETATM   20  C   UNL     1      10.789 -16.226  -6.315  1.00  0.00     0.149 C 
ENDBRANCH  15  18
ENDBRANCH   4  12
TORSDOF 2
ENDMDL
