MODEL 1
REMARK VINA RESULT:      -9.0      0.000      0.000
REMARK  5 active torsions:
REMARK  status: ('A' for Active; 'I' for Inactive)
REMARK    1  A    between atoms: S_3  and  O_4 
REMARK    2  A    between atoms: S_3  and  C_15 
REMARK    3  A    between atoms: N_9  and  C_30 
REMARK    4  A    between atoms: C_11  and  C_13 
REMARK    5  A    between atoms: C_18  and  C_25 
ROOT
HETATM    1  S   UNL     1      40.480   8.480 -17.844  1.00  0.00    -0.068 SA
HETATM    2  N   UNL     1      39.928  10.862 -17.217  1.00  0.00    -0.344 N 
HETATM    3  C   UNL     1      39.786  10.751 -18.579  1.00  0.00     0.053 A 
HETATM    4  C   UNL     1      40.342   9.677 -16.653  1.00  0.00     0.087 A 
HETATM    5  C   UNL     1      40.053   9.493 -19.105  1.00  0.00     0.057 A 
HETATM    6  C   UNL     1      39.950   9.202 -20.473  1.00  0.00     0.097 A 
HETATM    7  C   UNL     1      39.554  10.250 -21.343  1.00  0.00    -0.037 A 
HETATM    8  C   UNL     1      39.388  11.783 -19.441  1.00  0.00     0.031 A 
HETATM    9  C   UNL     1      39.593  12.108 -16.514  1.00  0.00     0.157 C 
HETATM   10  C   UNL     1      39.277  11.530 -20.813  1.00  0.00     0.011 A 
HETATM   11  C   UNL     1      39.420  10.033 -22.827  1.00  0.00     0.050 C 
ENDROOT
BRANCH   4  12
HETATM   12  C   UNL     1      40.686   9.394 -15.224  1.00  0.00    -0.001 A 
HETATM   13  C   UNL     1      39.722   9.399 -14.189  1.00  0.00     0.035 A 
HETATM   14  C   UNL     1      40.131   9.150 -12.883  1.00  0.00     0.034 A 
HETATM   15  S   UNL     1      39.191   9.092 -11.506  1.00  0.00    -0.069 SA
HETATM   16  C   UNL     1      41.448   8.906 -12.542  1.00  0.00     0.052 A 
HETATM   17  C   UNL     1      40.506   8.770 -10.480  1.00  0.00     0.087 A 
HETATM   18  N   UNL     1      41.670   8.673 -11.208  1.00  0.00    -0.344 N 
HETATM   19  C   UNL     1      43.005   8.312 -10.709  1.00  0.00     0.157 C 
HETATM   20  C   UNL     1      42.424   8.907 -13.549  1.00  0.00     0.032 A 
HETATM   21  C   UNL     1      42.041   9.162 -14.876  1.00  0.00     0.016 A 
BRANCH  17  22
HETATM   22  C   UNL     1      40.323   8.665  -8.997  1.00  0.00    -0.002 A 
HETATM   23  C   UNL     1      40.396   7.445  -8.301  1.00  0.00     0.016 A 
HETATM   24  C   UNL     1      40.243   7.396  -6.913  1.00  0.00     0.030 A 
HETATM   25  C   UNL     1      40.020   8.568  -6.158  1.00  0.00     0.029 A 
HETATM   26  C   UNL     1      39.970   9.792  -6.857  1.00  0.00     0.030 A 
HETATM   27  C   UNL     1      40.127   9.837  -8.245  1.00  0.00     0.016 A 
BRANCH  25  28
HETATM   28  N   UNL     1      39.862   8.517  -4.724  1.00  0.00    -0.390 N 
HETATM   29  C   UNL     1      39.255   9.630  -4.004  1.00  0.00     0.149 C 
HETATM   30  C   UNL     1      40.308   7.354  -3.968  1.00  0.00     0.149 C 
ENDBRANCH  25  28
ENDBRANCH  17  22
ENDBRANCH   4  12
BRANCH   6  31
HETATM   31  S   UNL     1      40.315   7.540 -21.088  1.00  0.00     0.131 S 
HETATM   32  O   UNL     1      40.169   7.431 -22.614  1.00  0.00    -0.598 OA
HETATM   33  O   UNL     1      41.800   7.190 -20.910  1.00  0.00    -0.598 OA
BRANCH  31  34
HETATM   34  O   UNL     1      39.480   6.177 -20.457  1.00  0.00    -0.292 OA
HETATM   35  H   UNL     1      38.822   5.932 -21.156  1.00  0.00     0.232 HD
ENDBRANCH  31  34
ENDBRANCH   6  31
TORSDOF 5
ENDMDL
MODEL 2
REMARK VINA RESULT:      -8.7      5.274     11.956
REMARK  5 active torsions:
REMARK  status: ('A' for Active; 'I' for Inactive)
REMARK    1  A    between atoms: S_3  and  O_4 
REMARK    2  A    between atoms: S_3  and  C_15 
REMARK    3  A    between atoms: N_9  and  C_30 
REMARK    4  A    between atoms: C_11  and  C_13 
REMARK    5  A    between atoms: C_18  and  C_25 
ROOT
HETATM    1  S   UNL     1      40.579   8.346  -8.776  1.00  0.00    -0.068 SA
HETATM    2  N   UNL     1      42.800   9.333  -9.458  1.00  0.00    -0.344 N 
HETATM    3  C   UNL     1      42.799   9.228  -8.088  1.00  0.00     0.053 A 
HETATM    4  C   UNL     1      41.610   8.905  -9.999  1.00  0.00     0.087 A 
HETATM    5  C   UNL     1      41.642   8.697  -7.533  1.00  0.00     0.057 A 
HETATM    6  C   UNL     1      41.475   8.512  -6.152  1.00  0.00     0.097 A 
HETATM    7  C   UNL     1      42.546   8.889  -5.302  1.00  0.00    -0.037 A 
HETATM    8  C   UNL     1      43.860   9.592  -7.245  1.00  0.00     0.031 A 
HETATM    9  C   UNL     1      43.990   9.793 -10.187  1.00  0.00     0.157 C 
HETATM   10  C   UNL     1      43.727   9.424  -5.862  1.00  0.00     0.011 A 
HETATM   11  C   UNL     1      42.457   8.730  -3.807  1.00  0.00     0.050 C 
ENDROOT
BRANCH   4  12
HETATM   12  C   UNL     1      41.175   8.925 -11.432  1.00  0.00    -0.001 A 
HETATM   13  C   UNL     1      41.971   8.411 -12.481  1.00  0.00     0.035 A 
HETATM   14  C   UNL     1      41.502   8.493 -13.788  1.00  0.00     0.034 A 
HETATM   15  S   UNL     1      42.245   7.954 -15.181  1.00  0.00    -0.069 SA
HETATM   16  C   UNL     1      40.288   9.067 -14.116  1.00  0.00     0.052 A 
HETATM   17  C   UNL     1      40.992   8.488 -16.196  1.00  0.00     0.087 A 
HETATM   18  N   UNL     1      39.981   9.055 -15.454  1.00  0.00    -0.344 N 
HETATM   19  C   UNL     1      38.686   9.550 -15.943  1.00  0.00     0.157 C 
HETATM   20  C   UNL     1      39.486   9.595 -13.094  1.00  0.00     0.032 A 
HETATM   21  C   UNL     1      39.937   9.532 -11.765  1.00  0.00     0.016 A 
BRANCH  17  22
HETATM   22  C   UNL     1      41.090   8.351 -17.685  1.00  0.00    -0.002 A 
HETATM   23  C   UNL     1      40.306   7.448 -18.424  1.00  0.00     0.016 A 
HETATM   24  C   UNL     1      40.413   7.370 -19.815  1.00  0.00     0.030 A 
HETATM   25  C   UNL     1      41.303   8.201 -20.529  1.00  0.00     0.029 A 
HETATM   26  C   UNL     1      42.070   9.122 -19.786  1.00  0.00     0.030 A 
HETATM   27  C   UNL     1      41.958   9.200 -18.396  1.00  0.00     0.016 A 
BRANCH  25  28
HETATM   28  N   UNL     1      41.413   8.122 -21.967  1.00  0.00    -0.390 N 
HETATM   29  C   UNL     1      40.466   7.330 -22.742  1.00  0.00     0.149 C 
HETATM   30  C   UNL     1      42.474   8.830 -22.671  1.00  0.00     0.149 C 
ENDBRANCH  25  28
ENDBRANCH  17  22
ENDBRANCH   4  12
BRANCH   6  31
HETATM   31  S   UNL     1      39.938   7.818  -5.498  1.00  0.00     0.131 S 
HETATM   32  O   UNL     1      39.857   7.903  -3.965  1.00  0.00    -0.598 OA
HETATM   33  O   UNL     1      38.723   8.665  -5.904  1.00  0.00    -0.598 OA
BRANCH  31  34
HETATM   34  O   UNL     1      39.478   6.208  -5.884  1.00  0.00    -0.292 OA
HETATM   35  H   UNL     1      39.900   5.645  -5.186  1.00  0.00     0.232 HD
ENDBRANCH  31  34
ENDBRANCH   6  31
TORSDOF 5
ENDMDL
MODEL 3
REMARK VINA RESULT:      -8.5      2.173      2.596
REMARK  5 active torsions:
REMARK  status: ('A' for Active; 'I' for Inactive)
REMARK    1  A    between atoms: S_3  and  O_4 
REMARK    2  A    between atoms: S_3  and  C_15 
REMARK    3  A    between atoms: N_9  and  C_30 
REMARK    4  A    between atoms: C_11  and  C_13 
REMARK    5  A    between atoms: C_18  and  C_25 
ROOT
HETATM    1  S   UNL     1      40.878   8.198 -17.977  1.00  0.00    -0.068 SA
HETATM    2  N   UNL     1      42.966   9.448 -17.306  1.00  0.00    -0.344 N 
HETATM    3  C   UNL     1      42.973   9.339 -18.676  1.00  0.00     0.053 A 
HETATM    4  C   UNL     1      41.867   8.831 -16.755  1.00  0.00     0.087 A 
HETATM    5  C   UNL     1      41.885   8.672 -19.225  1.00  0.00     0.057 A 
HETATM    6  C   UNL     1      41.729   8.478 -20.606  1.00  0.00     0.097 A 
HETATM    7  C   UNL     1      42.736   8.994 -21.463  1.00  0.00    -0.037 A 
HETATM    8  C   UNL     1      43.963   9.854 -19.526  1.00  0.00     0.031 A 
HETATM    9  C   UNL     1      44.007  10.205 -16.596  1.00  0.00     0.157 C 
HETATM   10  C   UNL     1      43.841   9.677 -20.909  1.00  0.00     0.011 A 
HETATM   11  C   UNL     1      42.655   8.831 -22.957  1.00  0.00     0.050 C 
ENDROOT
BRANCH   4  12
HETATM   12  C   UNL     1      41.523   8.655 -15.309  1.00  0.00    -0.001 A 
HETATM   13  C   UNL     1      42.029   9.498 -14.293  1.00  0.00     0.035 A 
HETATM   14  C   UNL     1      41.679   9.247 -12.970  1.00  0.00     0.034 A 
HETATM   15  S   UNL     1      42.134  10.098 -11.609  1.00  0.00    -0.069 SA
HETATM   16  C   UNL     1      40.861   8.198 -12.595  1.00  0.00     0.052 A 
HETATM   17  C   UNL     1      41.281   9.084 -10.546  1.00  0.00     0.087 A 
HETATM   18  N   UNL     1      40.614   8.105 -11.248  1.00  0.00    -0.344 N 
HETATM   19  C   UNL     1      39.693   7.095 -10.710  1.00  0.00     0.157 C 
HETATM   20  C   UNL     1      40.357   7.341 -13.583  1.00  0.00     0.032 A 
HETATM   21  C   UNL     1      40.699   7.566 -14.927  1.00  0.00     0.016 A 
BRANCH  17  22
HETATM   22  C   UNL     1      41.343   9.288  -9.064  1.00  0.00    -0.002 A 
HETATM   23  C   UNL     1      40.299   9.874  -8.326  1.00  0.00     0.016 A 
HETATM   24  C   UNL     1      40.390  10.023  -6.939  1.00  0.00     0.030 A 
HETATM   25  C   UNL     1      41.527   9.583  -6.228  1.00  0.00     0.029 A 
HETATM   26  C   UNL     1      42.563   8.975  -6.969  1.00  0.00     0.030 A 
HETATM   27  C   UNL     1      42.467   8.825  -8.354  1.00  0.00     0.016 A 
BRANCH  25  28
HETATM   28  N   UNL     1      41.621   9.736  -4.795  1.00  0.00    -0.390 N 
HETATM   29  C   UNL     1      41.322  11.016  -4.164  1.00  0.00     0.149 C 
HETATM   30  C   UNL     1      42.018   8.616  -3.953  1.00  0.00     0.149 C 
ENDBRANCH  25  28
ENDBRANCH  17  22
ENDBRANCH   4  12
BRANCH   6  31
HETATM   31  S   UNL     1      40.288   7.597 -21.252  1.00  0.00     0.131 S 
HETATM   32  O   UNL     1      39.216   8.548 -21.809  1.00  0.00    -0.598 OA
HETATM   33  O   UNL     1      40.642   6.786 -22.507  1.00  0.00    -0.598 OA
BRANCH  31  34
HETATM   34  O   UNL     1      39.431   6.486 -20.259  1.00  0.00    -0.292 OA
HETATM   35  H   UNL     1      39.600   6.787 -19.330  1.00  0.00     0.232 HD
ENDBRANCH  31  34
ENDBRANCH   6  31
TORSDOF 5
ENDMDL
MODEL 4
REMARK VINA RESULT:      -8.4      4.860     11.849
REMARK  5 active torsions:
REMARK  status: ('A' for Active; 'I' for Inactive)
REMARK    1  A    between atoms: S_3  and  O_4 
REMARK    2  A    between atoms: S_3  and  C_15 
REMARK    3  A    between atoms: N_9  and  C_30 
REMARK    4  A    between atoms: C_11  and  C_13 
REMARK    5  A    between atoms: C_18  and  C_25 
ROOT
HETATM    1  S   UNL     1      42.457   9.829 -10.452  1.00  0.00    -0.068 SA
HETATM    2  N   UNL     1      40.656   8.060 -10.402  1.00  0.00    -0.344 N 
HETATM    3  C   UNL     1      41.223   8.108  -9.151  1.00  0.00     0.053 A 
HETATM    4  C   UNL     1      41.257   8.948 -11.263  1.00  0.00     0.087 A 
HETATM    5  C   UNL     1      42.243   9.037  -8.995  1.00  0.00     0.057 A 
HETATM    6  C   UNL     1      42.925   9.224  -7.783  1.00  0.00     0.097 A 
HETATM    7  C   UNL     1      42.540   8.419  -6.679  1.00  0.00    -0.037 A 
HETATM    8  C   UNL     1      40.840   7.319  -8.056  1.00  0.00     0.031 A 
HETATM    9  C   UNL     1      39.508   7.188 -10.686  1.00  0.00     0.157 C 
HETATM   10  C   UNL     1      41.500   7.476  -6.832  1.00  0.00     0.011 A 
HETATM   11  C   UNL     1      43.217   8.547  -5.340  1.00  0.00     0.050 C 
ENDROOT
BRANCH   4  12
HETATM   12  C   UNL     1      40.995   9.156 -12.723  1.00  0.00    -0.001 A 
HETATM   13  C   UNL     1      41.411   8.237 -13.714  1.00  0.00     0.035 A 
HETATM   14  C   UNL     1      41.149   8.520 -15.051  1.00  0.00     0.034 A 
HETATM   15  S   UNL     1      41.526   7.598 -16.388  1.00  0.00    -0.069 SA
HETATM   16  C   UNL     1      40.504   9.672 -15.462  1.00  0.00     0.052 A 
HETATM   17  C   UNL     1      40.867   8.711 -17.488  1.00  0.00     0.087 A 
HETATM   18  N   UNL     1      40.323   9.784 -16.818  1.00  0.00    -0.344 N 
HETATM   19  C   UNL     1      39.576  10.910 -17.396  1.00  0.00     0.157 C 
HETATM   20  C   UNL     1      40.093  10.604 -14.499  1.00  0.00     0.032 A 
HETATM   21  C   UNL     1      40.350  10.347 -13.142  1.00  0.00     0.016 A 
BRANCH  17  22
HETATM   22  C   UNL     1      40.953   8.484 -18.966  1.00  0.00    -0.002 A 
HETATM   23  C   UNL     1      39.913   7.905 -19.715  1.00  0.00     0.016 A 
HETATM   24  C   UNL     1      40.026   7.733 -21.097  1.00  0.00     0.030 A 
HETATM   25  C   UNL     1      41.184   8.143 -21.793  1.00  0.00     0.029 A 
HETATM   26  C   UNL     1      42.216   8.744 -21.042  1.00  0.00     0.030 A 
HETATM   27  C   UNL     1      42.097   8.917 -19.661  1.00  0.00     0.016 A 
BRANCH  25  28
HETATM   28  N   UNL     1      41.302   7.966 -23.221  1.00  0.00    -0.390 N 
HETATM   29  C   UNL     1      42.493   8.416 -23.930  1.00  0.00     0.149 C 
HETATM   30  C   UNL     1      40.231   7.335 -23.983  1.00  0.00     0.149 C 
ENDBRANCH  25  28
ENDBRANCH  17  22
ENDBRANCH   4  12
BRANCH   6  31
HETATM   31  S   UNL     1      44.246  10.452  -7.652  1.00  0.00     0.131 S 
HETATM   32  O   UNL     1      45.096  10.542  -8.929  1.00  0.00    -0.598 OA
HETATM   33  O   UNL     1      43.680  11.878  -7.575  1.00  0.00    -0.598 OA
BRANCH  31  34
HETATM   34  O   UNL     1      45.379  10.376  -6.362  1.00  0.00    -0.292 OA
HETATM   35  H   UNL     1      45.486   9.410  -6.169  1.00  0.00     0.232 HD
ENDBRANCH  31  34
ENDBRANCH   6  31
TORSDOF 5
ENDMDL
MODEL 5
REMARK VINA RESULT:      -8.3      2.983      3.554
REMARK  5 active torsions:
REMARK  status: ('A' for Active; 'I' for Inactive)
REMARK    1  A    between atoms: S_3  and  O_4 
REMARK    2  A    between atoms: S_3  and  C_15 
REMARK    3  A    between atoms: N_9  and  C_30 
REMARK    4  A    between atoms: C_11  and  C_13 
REMARK    5  A    between atoms: C_18  and  C_25 
ROOT
HETATM    1  S   UNL     1      42.534   9.653 -15.997  1.00  0.00    -0.068 SA
HETATM    2  N   UNL     1      40.628   7.998 -15.986  1.00  0.00    -0.344 N 
HETATM    3  C   UNL     1      41.087   8.090 -17.278  1.00  0.00     0.053 A 
HETATM    4  C   UNL     1      41.318   8.838 -15.143  1.00  0.00     0.087 A 
HETATM    5  C   UNL     1      42.148   8.966 -17.472  1.00  0.00     0.057 A 
HETATM    6  C   UNL     1      42.744   9.175 -18.724  1.00  0.00     0.097 A 
HETATM    7  C   UNL     1      42.227   8.452 -19.830  1.00  0.00    -0.037 A 
HETATM    8  C   UNL     1      40.583   7.371 -18.372  1.00  0.00     0.031 A 
HETATM    9  C   UNL     1      39.570   7.046 -15.619  1.00  0.00     0.157 C 
HETATM   10  C   UNL     1      41.152   7.557 -19.638  1.00  0.00     0.011 A 
HETATM   11  C   UNL     1      42.801   8.614 -21.213  1.00  0.00     0.050 C 
ENDROOT
BRANCH   4  12
HETATM   12  C   UNL     1      41.085   9.096 -13.687  1.00  0.00    -0.001 A 
HETATM   13  C   UNL     1      41.702   8.337 -12.666  1.00  0.00     0.035 A 
HETATM   14  C   UNL     1      41.409   8.627 -11.337  1.00  0.00     0.034 A 
HETATM   15  S   UNL     1      42.013   7.888  -9.969  1.00  0.00    -0.069 SA
HETATM   16  C   UNL     1      40.529   9.624 -10.963  1.00  0.00     0.052 A 
HETATM   17  C   UNL     1      41.109   8.857  -8.905  1.00  0.00     0.087 A 
HETATM   18  N   UNL     1      40.365   9.778  -9.608  1.00  0.00    -0.344 N 
HETATM   19  C   UNL     1      39.529  10.854  -9.059  1.00  0.00     0.157 C 
HETATM   20  C   UNL     1      39.895  10.383 -11.957  1.00  0.00     0.032 A 
HETATM   21  C   UNL     1      40.166  10.108 -13.307  1.00  0.00     0.016 A 
BRANCH  17  22
HETATM   22  C   UNL     1      41.156   8.633  -7.425  1.00  0.00    -0.002 A 
HETATM   23  C   UNL     1      40.112   8.020  -6.709  1.00  0.00     0.016 A 
HETATM   24  C   UNL     1      40.208   7.810  -5.331  1.00  0.00     0.030 A 
HETATM   25  C   UNL     1      41.358   8.196  -4.609  1.00  0.00     0.029 A 
HETATM   26  C   UNL     1      42.412   8.790  -5.334  1.00  0.00     0.030 A 
HETATM   27  C   UNL     1      42.314   8.996  -6.713  1.00  0.00     0.016 A 
BRANCH  25  28
HETATM   28  N   UNL     1      41.458   7.979  -3.185  1.00  0.00    -0.390 N 
HETATM   29  C   UNL     1      42.467   8.675  -2.396  1.00  0.00     0.149 C 
HETATM   30  C   UNL     1      40.553   7.059  -2.509  1.00  0.00     0.149 C 
ENDBRANCH  25  28
ENDBRANCH  17  22
ENDBRANCH   4  12
BRANCH   6  31
HETATM   31  S   UNL     1      44.122  10.333 -18.903  1.00  0.00     0.131 S 
HETATM   32  O   UNL     1      45.059   9.961 -20.064  1.00  0.00    -0.598 OA
HETATM   33  O   UNL     1      43.635  11.719 -19.352  1.00  0.00    -0.598 OA
BRANCH  31  34
HETATM   34  O   UNL     1      45.161  10.660 -17.574  1.00  0.00    -0.292 OA
HETATM   35  H   UNL     1      45.983  11.040 -17.977  1.00  0.00     0.232 HD
ENDBRANCH  31  34
ENDBRANCH   6  31
TORSDOF 5
ENDMDL
MODEL 6
REMARK VINA RESULT:      -8.3      2.639      4.962
REMARK  5 active torsions:
REMARK  status: ('A' for Active; 'I' for Inactive)
REMARK    1  A    between atoms: S_3  and  O_4 
REMARK    2  A    between atoms: S_3  and  C_15 
REMARK    3  A    between atoms: N_9  and  C_30 
REMARK    4  A    between atoms: C_11  and  C_13 
REMARK    5  A    between atoms: C_18  and  C_25 
ROOT
HETATM    1  S   UNL     1      40.427   8.517 -12.967  1.00  0.00    -0.068 SA
HETATM    2  N   UNL     1      39.934  10.914 -12.346  1.00  0.00    -0.344 N 
HETATM    3  C   UNL     1      39.807  10.807 -13.710  1.00  0.00     0.053 A 
HETATM    4  C   UNL     1      40.308   9.719 -11.777  1.00  0.00     0.087 A 
HETATM    5  C   UNL     1      40.045   9.542 -14.232  1.00  0.00     0.057 A 
HETATM    6  C   UNL     1      39.951   9.253 -15.602  1.00  0.00     0.097 A 
HETATM    7  C   UNL     1      39.597  10.313 -16.477  1.00  0.00    -0.037 A 
HETATM    8  C   UNL     1      39.450  11.850 -14.577  1.00  0.00     0.031 A 
HETATM    9  C   UNL     1      39.626  12.170 -11.648  1.00  0.00     0.157 C 
HETATM   10  C   UNL     1      39.350  11.600 -15.950  1.00  0.00     0.011 A 
HETATM   11  C   UNL     1      39.476  10.099 -17.962  1.00  0.00     0.050 C 
ENDROOT
BRANCH   4  12
HETATM   12  C   UNL     1      40.624   9.426 -10.344  1.00  0.00    -0.001 A 
HETATM   13  C   UNL     1      39.633   9.369  -9.337  1.00  0.00     0.035 A 
HETATM   14  C   UNL     1      40.017   9.117  -8.023  1.00  0.00     0.034 A 
HETATM   15  S   UNL     1      39.043   8.992  -6.675  1.00  0.00    -0.069 SA
HETATM   16  C   UNL     1      41.334   8.926  -7.650  1.00  0.00     0.052 A 
HETATM   17  C   UNL     1      40.343   8.712  -5.617  1.00  0.00     0.087 A 
HETATM   18  N   UNL     1      41.530   8.680  -6.314  1.00  0.00    -0.344 N 
HETATM   19  C   UNL     1      42.865   8.371  -5.783  1.00  0.00     0.157 C 
HETATM   20  C   UNL     1      42.336   8.989  -8.628  1.00  0.00     0.032 A 
HETATM   21  C   UNL     1      41.978   9.249  -9.961  1.00  0.00     0.016 A 
BRANCH  17  22
HETATM   22  C   UNL     1      40.125   8.572  -4.142  1.00  0.00    -0.002 A 
HETATM   23  C   UNL     1      39.549   9.583  -3.353  1.00  0.00     0.016 A 
HETATM   24  C   UNL     1      39.343   9.401  -1.983  1.00  0.00     0.030 A 
HETATM   25  C   UNL     1      39.694   8.192  -1.344  1.00  0.00     0.029 A 
HETATM   26  C   UNL     1      40.250   7.172  -2.143  1.00  0.00     0.030 A 
HETATM   27  C   UNL     1      40.452   7.357  -3.513  1.00  0.00     0.016 A 
BRANCH  25  28
HETATM   28  N   UNL     1      39.481   8.003   0.072  1.00  0.00    -0.390 N 
HETATM   29  C   UNL     1      38.494   7.043   0.552  1.00  0.00     0.149 C 
HETATM   30  C   UNL     1      40.246   8.769   1.047  1.00  0.00     0.149 C 
ENDBRANCH  25  28
ENDBRANCH  17  22
ENDBRANCH   4  12
BRANCH   6  31
HETATM   31  S   UNL     1      40.277   7.582 -16.212  1.00  0.00     0.131 S 
HETATM   32  O   UNL     1      40.085   7.461 -17.733  1.00  0.00    -0.598 OA
HETATM   33  O   UNL     1      41.762   7.215 -16.075  1.00  0.00    -0.598 OA
BRANCH  31  34
HETATM   34  O   UNL     1      39.445   6.235 -15.545  1.00  0.00    -0.292 OA
HETATM   35  H   UNL     1      39.991   5.954 -14.767  1.00  0.00     0.232 HD
ENDBRANCH  31  34
ENDBRANCH   6  31
TORSDOF 5
ENDMDL
MODEL 7
REMARK VINA RESULT:      -8.2      3.007      5.412
REMARK  5 active torsions:
REMARK  status: ('A' for Active; 'I' for Inactive)
REMARK    1  A    between atoms: S_3  and  O_4 
REMARK    2  A    between atoms: S_3  and  C_15 
REMARK    3  A    between atoms: N_9  and  C_30 
REMARK    4  A    between atoms: C_11  and  C_13 
REMARK    5  A    between atoms: C_18  and  C_25 
ROOT
HETATM    1  S   UNL     1      40.643   8.577 -13.080  1.00  0.00    -0.068 SA
HETATM    2  N   UNL     1      42.792   9.759 -12.482  1.00  0.00    -0.344 N 
HETATM    3  C   UNL     1      42.817   9.517 -13.835  1.00  0.00     0.053 A 
HETATM    4  C   UNL     1      41.647   9.266 -11.901  1.00  0.00     0.087 A 
HETATM    5  C   UNL     1      41.700   8.866 -14.344  1.00  0.00     0.057 A 
HETATM    6  C   UNL     1      41.557   8.549 -15.702  1.00  0.00     0.097 A 
HETATM    7  C   UNL     1      42.609   8.917 -16.581  1.00  0.00    -0.037 A 
HETATM    8  C   UNL     1      43.852   9.887 -14.707  1.00  0.00     0.031 A 
HETATM    9  C   UNL     1      43.864  10.518 -11.824  1.00  0.00     0.157 C 
HETATM   10  C   UNL     1      43.744   9.584 -16.069  1.00  0.00     0.011 A 
HETATM   11  C   UNL     1      42.545   8.615 -18.054  1.00  0.00     0.050 C 
ENDROOT
BRANCH   4  12
HETATM   12  C   UNL     1      41.267   9.252 -10.453  1.00  0.00    -0.001 A 
HETATM   13  C   UNL     1      42.138   8.796  -9.437  1.00  0.00     0.035 A 
HETATM   14  C   UNL     1      41.694   8.793  -8.118  1.00  0.00     0.034 A 
HETATM   15  S   UNL     1      42.531   8.318  -6.756  1.00  0.00    -0.069 SA
HETATM   16  C   UNL     1      40.428   9.207  -7.750  1.00  0.00     0.052 A 
HETATM   17  C   UNL     1      41.235   8.636  -5.705  1.00  0.00     0.087 A 
HETATM   18  N   UNL     1      40.163   9.144  -6.405  1.00  0.00    -0.344 N 
HETATM   19  C   UNL     1      38.891   9.633  -5.855  1.00  0.00     0.157 C 
HETATM   20  C   UNL     1      39.542   9.652  -8.742  1.00  0.00     0.032 A 
HETATM   21  C   UNL     1      39.960   9.660 -10.082  1.00  0.00     0.016 A 
BRANCH  17  22
HETATM   22  C   UNL     1      41.331   8.334  -4.241  1.00  0.00    -0.002 A 
HETATM   23  C   UNL     1      42.225   8.994  -3.379  1.00  0.00     0.016 A 
HETATM   24  C   UNL     1      42.265   8.696  -2.015  1.00  0.00     0.030 A 
HETATM   25  C   UNL     1      41.404   7.731  -1.450  1.00  0.00     0.029 A 
HETATM   26  C   UNL     1      40.493   7.087  -2.314  1.00  0.00     0.030 A 
HETATM   27  C   UNL     1      40.454   7.389  -3.677  1.00  0.00     0.016 A 
BRANCH  25  28
HETATM   28  N   UNL     1      41.444   7.424  -0.040  1.00  0.00    -0.390 N 
HETATM   29  C   UNL     1      41.148   8.449   0.953  1.00  0.00     0.149 C 
HETATM   30  C   UNL     1      41.783   6.082   0.419  1.00  0.00     0.149 C 
ENDBRANCH  25  28
ENDBRANCH  17  22
ENDBRANCH   4  12
BRANCH   6  31
HETATM   31  S   UNL     1      40.076   7.697 -16.295  1.00  0.00     0.131 S 
HETATM   32  O   UNL     1      38.926   8.666 -16.614  1.00  0.00    -0.598 OA
HETATM   33  O   UNL     1      40.310   7.056 -17.672  1.00  0.00    -0.598 OA
BRANCH  31  34
HETATM   34  O   UNL     1      39.362   6.443 -15.362  1.00  0.00    -0.292 OA
HETATM   35  H   UNL     1      39.263   6.823 -14.452  1.00  0.00     0.232 HD
ENDBRANCH  31  34
ENDBRANCH   6  31
TORSDOF 5
ENDMDL
MODEL 8
REMARK VINA RESULT:      -8.1      1.378      2.077
REMARK  5 active torsions:
REMARK  status: ('A' for Active; 'I' for Inactive)
REMARK    1  A    between atoms: S_3  and  O_4 
REMARK    2  A    between atoms: S_3  and  C_15 
REMARK    3  A    between atoms: N_9  and  C_30 
REMARK    4  A    between atoms: C_11  and  C_13 
REMARK    5  A    between atoms: C_18  and  C_25 
ROOT
HETATM    1  S   UNL     1      40.679   8.720 -15.984  1.00  0.00    -0.068 SA
HETATM    2  N   UNL     1      40.132  11.144 -15.538  1.00  0.00    -0.344 N 
HETATM    3  C   UNL     1      39.983  10.929 -16.887  1.00  0.00     0.053 A 
HETATM    4  C   UNL     1      40.549  10.006 -14.888  1.00  0.00     0.087 A 
HETATM    5  C   UNL     1      40.245   9.634 -17.316  1.00  0.00     0.057 A 
HETATM    6  C   UNL     1      40.134   9.238 -18.657  1.00  0.00     0.097 A 
HETATM    7  C   UNL     1      39.734  10.218 -19.603  1.00  0.00    -0.037 A 
HETATM    8  C   UNL     1      39.580  11.892 -17.824  1.00  0.00     0.031 A 
HETATM    9  C   UNL     1      39.802  12.441 -14.932  1.00  0.00     0.157 C 
HETATM   10  C   UNL     1      39.461  11.535 -19.171  1.00  0.00     0.011 A 
HETATM   11  C   UNL     1      39.591   9.886 -21.065  1.00  0.00     0.050 C 
ENDROOT
BRANCH   4  12
HETATM   12  C   UNL     1      40.901   9.833 -13.443  1.00  0.00    -0.001 A 
HETATM   13  C   UNL     1      39.939   9.529 -12.452  1.00  0.00     0.035 A 
HETATM   14  C   UNL     1      40.348   9.411 -11.127  1.00  0.00     0.034 A 
HETATM   15  S   UNL     1      39.413   9.051  -9.793  1.00  0.00    -0.069 SA
HETATM   16  C   UNL     1      41.659   9.587 -10.727  1.00  0.00     0.052 A 
HETATM   17  C   UNL     1      40.716   9.148  -8.708  1.00  0.00     0.087 A 
HETATM   18  N   UNL     1      41.884   9.425  -9.383  1.00  0.00    -0.344 N 
HETATM   19  C   UNL     1      43.240   9.495  -8.823  1.00  0.00     0.157 C 
HETATM   20  C   UNL     1      42.629   9.901 -11.690  1.00  0.00     0.032 A 
HETATM   21  C   UNL     1      42.244  10.034 -13.034  1.00  0.00     0.016 A 
BRANCH  17  22
HETATM   22  C   UNL     1      40.510   8.980  -7.234  1.00  0.00    -0.002 A 
HETATM   23  C   UNL     1      40.001   9.998  -6.409  1.00  0.00     0.016 A 
HETATM   24  C   UNL     1      39.803   9.789  -5.041  1.00  0.00     0.030 A 
HETATM   25  C   UNL     1      40.098   8.546  -4.441  1.00  0.00     0.029 A 
HETATM   26  C   UNL     1      40.587   7.520  -5.275  1.00  0.00     0.030 A 
HETATM   27  C   UNL     1      40.781   7.732  -6.643  1.00  0.00     0.016 A 
BRANCH  25  28
HETATM   28  N   UNL     1      39.894   8.330  -3.027  1.00  0.00    -0.390 N 
HETATM   29  C   UNL     1      39.126   9.281  -2.233  1.00  0.00     0.149 C 
HETATM   30  C   UNL     1      40.452   7.157  -2.367  1.00  0.00     0.149 C 
ENDBRANCH  25  28
ENDBRANCH  17  22
ENDBRANCH   4  12
BRANCH   6  31
HETATM   31  S   UNL     1      40.495   7.535 -19.145  1.00  0.00     0.131 S 
HETATM   32  O   UNL     1      41.875   7.389 -19.806  1.00  0.00    -0.598 OA
HETATM   33  O   UNL     1      40.659   6.623 -17.919  1.00  0.00    -0.598 OA
BRANCH  31  34
HETATM   34  O   UNL     1      39.413   6.675 -20.168  1.00  0.00    -0.292 OA
HETATM   35  H   UNL     1      39.605   7.008 -21.082  1.00  0.00     0.232 HD
ENDBRANCH  31  34
ENDBRANCH   6  31
TORSDOF 5
ENDMDL
MODEL 9
REMARK VINA RESULT:      -8.1      4.243     11.755
REMARK  5 active torsions:
REMARK  status: ('A' for Active; 'I' for Inactive)
REMARK    1  A    between atoms: S_3  and  O_4 
REMARK    2  A    between atoms: S_3  and  C_15 
REMARK    3  A    between atoms: N_9  and  C_30 
REMARK    4  A    between atoms: C_11  and  C_13 
REMARK    5  A    between atoms: C_18  and  C_25 
ROOT
HETATM    1  S   UNL     1      40.745   8.718 -12.847  1.00  0.00    -0.068 SA
HETATM    2  N   UNL     1      40.282  11.141 -13.379  1.00  0.00    -0.344 N 
HETATM    3  C   UNL     1      40.032  10.958 -12.040  1.00  0.00     0.053 A 
HETATM    4  C   UNL     1      40.666   9.969 -13.987  1.00  0.00     0.087 A 
HETATM    5  C   UNL     1      40.238   9.668 -11.568  1.00  0.00     0.057 A 
HETATM    6  C   UNL     1      40.038   9.307 -10.227  1.00  0.00     0.097 A 
HETATM    7  C   UNL     1      39.608  10.317  -9.329  1.00  0.00    -0.037 A 
HETATM    8  C   UNL     1      39.613  11.956 -11.148  1.00  0.00     0.031 A 
HETATM    9  C   UNL     1      40.192  12.473 -13.996  1.00  0.00     0.157 C 
HETATM   10  C   UNL     1      39.401  11.631  -9.803  1.00  0.00     0.011 A 
HETATM   11  C   UNL     1      39.364  10.022  -7.873  1.00  0.00     0.050 C 
ENDROOT
BRANCH   4  12
HETATM   12  C   UNL     1      40.954   9.720 -15.435  1.00  0.00    -0.001 A 
HETATM   13  C   UNL     1      39.957   9.782 -16.436  1.00  0.00     0.035 A 
HETATM   14  C   UNL     1      40.306   9.510 -17.755  1.00  0.00     0.034 A 
HETATM   15  S   UNL     1      39.322   9.529 -19.102  1.00  0.00    -0.069 SA
HETATM   16  C   UNL     1      41.590   9.170 -18.138  1.00  0.00     0.052 A 
HETATM   17  C   UNL     1      40.567   9.076 -20.164  1.00  0.00     0.087 A 
HETATM   18  N   UNL     1      41.756   8.943 -19.482  1.00  0.00    -0.344 N 
HETATM   19  C   UNL     1      43.082   8.659 -20.048  1.00  0.00     0.157 C 
HETATM   20  C   UNL     1      42.593   9.090 -17.162  1.00  0.00     0.032 A 
HETATM   21  C   UNL     1      42.268   9.353 -15.821  1.00  0.00     0.016 A 
BRANCH  17  22
HETATM   22  C   UNL     1      40.298   8.840 -21.618  1.00  0.00    -0.002 A 
HETATM   23  C   UNL     1      39.911   9.863 -22.503  1.00  0.00     0.016 A 
HETATM   24  C   UNL     1      39.693   9.602 -23.858  1.00  0.00     0.030 A 
HETATM   25  C   UNL     1      39.863   8.306 -24.391  1.00  0.00     0.029 A 
HETATM   26  C   UNL     1      40.273   7.287 -23.505  1.00  0.00     0.030 A 
HETATM   27  C   UNL     1      40.493   7.553 -22.151  1.00  0.00     0.016 A 
BRANCH  25  28
HETATM   28  N   UNL     1      39.638   8.036 -25.791  1.00  0.00    -0.390 N 
HETATM   29  C   UNL     1      39.223   6.711 -26.235  1.00  0.00     0.149 C 
HETATM   30  C   UNL     1      39.822   9.082 -26.789  1.00  0.00     0.149 C 
ENDBRANCH  25  28
ENDBRANCH  17  22
ENDBRANCH   4  12
BRANCH   6  31
HETATM   31  S   UNL     1      40.323   7.606  -9.683  1.00  0.00     0.131 S 
HETATM   32  O   UNL     1      39.466   6.588 -10.451  1.00  0.00    -0.598 OA
HETATM   33  O   UNL     1      41.738   7.131 -10.046  1.00  0.00    -0.598 OA
BRANCH  31  34
HETATM   34  O   UNL     1      40.148   7.182  -8.026  1.00  0.00    -0.292 OA
HETATM   35  H   UNL     1      40.601   7.908  -7.526  1.00  0.00     0.232 HD
ENDBRANCH  31  34
ENDBRANCH   6  31
TORSDOF 5
ENDMDL
MODEL 10
REMARK VINA RESULT:      -8.0      3.042      4.561
REMARK  5 active torsions:
REMARK  status: ('A' for Active; 'I' for Inactive)
REMARK    1  A    between atoms: S_3  and  O_4 
REMARK    2  A    between atoms: S_3  and  C_15 
REMARK    3  A    between atoms: N_9  and  C_30 
REMARK    4  A    between atoms: C_11  and  C_13 
REMARK    5  A    between atoms: C_18  and  C_25 
ROOT
HETATM    1  S   UNL     1      42.607   9.674 -20.667  1.00  0.00    -0.068 SA
HETATM    2  N   UNL     1      40.749   7.972 -20.819  1.00  0.00    -0.344 N 
HETATM    3  C   UNL     1      41.256   8.143 -22.085  1.00  0.00     0.053 A 
HETATM    4  C   UNL     1      41.381   8.784 -19.907  1.00  0.00     0.087 A 
HETATM    5  C   UNL     1      42.299   9.054 -22.190  1.00  0.00     0.057 A 
HETATM    6  C   UNL     1      42.939   9.343 -23.404  1.00  0.00     0.097 A 
HETATM    7  C   UNL     1      42.487   8.665 -24.566  1.00  0.00    -0.037 A 
HETATM    8  C   UNL     1      40.817   7.469 -23.234  1.00  0.00     0.031 A 
HETATM    9  C   UNL     1      39.704   6.976 -20.544  1.00  0.00     0.157 C 
HETATM   10  C   UNL     1      41.430   7.734 -24.463  1.00  0.00     0.011 A 
HETATM   11  C   UNL     1      43.110   8.913 -25.913  1.00  0.00     0.050 C 
ENDROOT
BRANCH   4  12
HETATM   12  C   UNL     1      41.083   8.961 -18.450  1.00  0.00    -0.001 A 
HETATM   13  C   UNL     1      41.890   8.405 -17.431  1.00  0.00     0.035 A 
HETATM   14  C   UNL     1      41.526   8.596 -16.101  1.00  0.00     0.034 A 
HETATM   15  S   UNL     1      42.313   8.055 -14.734  1.00  0.00    -0.069 SA
HETATM   16  C   UNL     1      40.398   9.300 -15.725  1.00  0.00     0.052 A 
HETATM   17  C   UNL     1      41.171   8.723 -13.669  1.00  0.00     0.087 A 
HETATM   18  N   UNL     1      40.196   9.396 -14.371  1.00  0.00    -0.344 N 
HETATM   19  C   UNL     1      39.088  10.188 -13.819  1.00  0.00     0.157 C 
HETATM   20  C   UNL     1      39.575   9.850 -16.718  1.00  0.00     0.032 A 
HETATM   21  C   UNL     1      39.914   9.668 -18.069  1.00  0.00     0.016 A 
BRANCH  17  22
HETATM   22  C   UNL     1      41.278   8.517 -12.189  1.00  0.00    -0.002 A 
HETATM   23  C   UNL     1      42.360   8.990 -11.426  1.00  0.00     0.016 A 
HETATM   24  C   UNL     1      42.408   8.796 -10.043  1.00  0.00     0.030 A 
HETATM   25  C   UNL     1      41.368   8.128  -9.361  1.00  0.00     0.029 A 
HETATM   26  C   UNL     1      40.274   7.675 -10.127  1.00  0.00     0.030 A 
HETATM   27  C   UNL     1      40.228   7.873 -11.509  1.00  0.00     0.016 A 
BRANCH  25  28
HETATM   28  N   UNL     1      41.417   7.927  -7.931  1.00  0.00    -0.390 N 
HETATM   29  C   UNL     1      42.398   8.631  -7.115  1.00  0.00     0.149 C 
HETATM   30  C   UNL     1      40.487   7.015  -7.277  1.00  0.00     0.149 C 
ENDBRANCH  25  28
ENDBRANCH  17  22
ENDBRANCH   4  12
BRANCH   6  31
HETATM   31  S   UNL     1      44.290  10.544 -23.467  1.00  0.00     0.131 S 
HETATM   32  O   UNL     1      43.788  11.996 -23.529  1.00  0.00    -0.598 OA
HETATM   33  O   UNL     1      45.083  10.565 -22.152  1.00  0.00    -0.598 OA
BRANCH  31  34
HETATM   34  O   UNL     1      45.496  10.433 -24.687  1.00  0.00    -0.292 OA
HETATM   35  H   UNL     1      45.527  11.333 -25.101  1.00  0.00     0.232 HD
ENDBRANCH  31  34
ENDBRANCH   6  31
TORSDOF 5
ENDMDL
MODEL 11
REMARK VINA RESULT:      -8.0      2.967      3.460
REMARK  5 active torsions:
REMARK  status: ('A' for Active; 'I' for Inactive)
REMARK    1  A    between atoms: S_3  and  O_4 
REMARK    2  A    between atoms: S_3  and  C_15 
REMARK    3  A    between atoms: N_9  and  C_30 
REMARK    4  A    between atoms: C_11  and  C_13 
REMARK    5  A    between atoms: C_18  and  C_25 
ROOT
HETATM    1  S   UNL     1      43.563   9.741 -18.904  1.00  0.00    -0.068 SA
HETATM    2  N   UNL     1      41.597   8.165 -18.752  1.00  0.00    -0.344 N 
HETATM    3  C   UNL     1      41.835   8.400 -20.085  1.00  0.00     0.053 A 
HETATM    4  C   UNL     1      42.465   8.869 -17.951  1.00  0.00     0.087 A 
HETATM    5  C   UNL     1      42.895   9.255 -20.358  1.00  0.00     0.057 A 
HETATM    6  C   UNL     1      43.281   9.597 -21.663  1.00  0.00     0.097 A 
HETATM    7  C   UNL     1      42.545   9.034 -22.737  1.00  0.00    -0.037 A 
HETATM    8  C   UNL     1      41.114   7.840 -21.150  1.00  0.00     0.031 A 
HETATM    9  C   UNL     1      40.565   7.212 -18.318  1.00  0.00     0.157 C 
HETATM   10  C   UNL     1      41.470   8.160 -22.465  1.00  0.00     0.011 A 
HETATM   11  C   UNL     1      42.885   9.346 -24.171  1.00  0.00     0.050 C 
ENDROOT
BRANCH   4  12
HETATM   12  C   UNL     1      42.496   8.954 -16.456  1.00  0.00    -0.001 A 
HETATM   13  C   UNL     1      41.420   8.530 -15.643  1.00  0.00     0.035 A 
HETATM   14  C   UNL     1      41.522   8.669 -14.262  1.00  0.00     0.034 A 
HETATM   15  S   UNL     1      40.403   8.238 -13.103  1.00  0.00    -0.069 SA
HETATM   16  C   UNL     1      42.630   9.214 -13.641  1.00  0.00     0.052 A 
HETATM   17  C   UNL     1      41.360   8.781 -11.809  1.00  0.00     0.087 A 
HETATM   18  N   UNL     1      42.563   9.266 -12.271  1.00  0.00    -0.344 N 
HETATM   19  C   UNL     1      43.700   9.738 -11.470  1.00  0.00     0.157 C 
HETATM   20  C   UNL     1      43.705   9.652 -14.428  1.00  0.00     0.032 A 
HETATM   21  C   UNL     1      43.627   9.531 -15.825  1.00  0.00     0.016 A 
BRANCH  17  22
HETATM   22  C   UNL     1      40.856   8.733 -10.399  1.00  0.00    -0.002 A 
HETATM   23  C   UNL     1      40.100   9.767  -9.819  1.00  0.00     0.016 A 
HETATM   24  C   UNL     1      39.630   9.669  -8.506  1.00  0.00     0.030 A 
HETATM   25  C   UNL     1      39.889   8.527  -7.719  1.00  0.00     0.029 A 
HETATM   26  C   UNL     1      40.628   7.482  -8.312  1.00  0.00     0.030 A 
HETATM   27  C   UNL     1      41.094   7.582  -9.625  1.00  0.00     0.016 A 
BRANCH  25  28
HETATM   28  N   UNL     1      39.403   8.425  -6.363  1.00  0.00    -0.390 N 
HETATM   29  C   UNL     1      38.627   9.507  -5.769  1.00  0.00     0.149 C 
HETATM   30  C   UNL     1      39.681   7.241  -5.561  1.00  0.00     0.149 C 
ENDBRANCH  25  28
ENDBRANCH  17  22
ENDBRANCH   4  12
BRANCH   6  31
HETATM   31  S   UNL     1      44.671  10.719 -21.944  1.00  0.00     0.131 S 
HETATM   32  O   UNL     1      44.351  12.168 -21.544  1.00  0.00    -0.598 OA
HETATM   33  O   UNL     1      45.844  10.407 -21.002  1.00  0.00    -0.598 OA
BRANCH  31  34
HETATM   34  O   UNL     1      45.397  10.832 -23.498  1.00  0.00    -0.292 OA
HETATM   35  H   UNL     1      45.008  11.648 -23.905  1.00  0.00     0.232 HD
ENDBRANCH  31  34
ENDBRANCH   6  31
TORSDOF 5
ENDMDL
MODEL 12
REMARK VINA RESULT:      -7.8      4.572     12.483
REMARK  5 active torsions:
REMARK  status: ('A' for Active; 'I' for Inactive)
REMARK    1  A    between atoms: S_3  and  O_4 
REMARK    2  A    between atoms: S_3  and  C_15 
REMARK    3  A    between atoms: N_9  and  C_30 
REMARK    4  A    between atoms: C_11  and  C_13 
REMARK    5  A    between atoms: C_18  and  C_25 
ROOT
HETATM    1  S   UNL     1      42.790   9.534 -14.790  1.00  0.00    -0.068 SA
HETATM    2  N   UNL     1      40.894   7.878 -14.970  1.00  0.00    -0.344 N 
HETATM    3  C   UNL     1      41.234   7.974 -13.642  1.00  0.00     0.053 A 
HETATM    4  C   UNL     1      41.696   8.672 -15.755  1.00  0.00     0.087 A 
HETATM    5  C   UNL     1      42.271   8.852 -13.354  1.00  0.00     0.057 A 
HETATM    6  C   UNL     1      42.739   9.077 -12.051  1.00  0.00     0.097 A 
HETATM    7  C   UNL     1      42.113   8.369 -10.993  1.00  0.00    -0.037 A 
HETATM    8  C   UNL     1      40.612   7.280 -12.592  1.00  0.00     0.031 A 
HETATM    9  C   UNL     1      39.758   7.056 -15.409  1.00  0.00     0.157 C 
HETATM   10  C   UNL     1      41.055   7.478 -11.280  1.00  0.00     0.011 A 
HETATM   11  C   UNL     1      42.551   8.544  -9.563  1.00  0.00     0.050 C 
ENDROOT
BRANCH   4  12
HETATM   12  C   UNL     1      41.709   8.800 -17.247  1.00  0.00    -0.001 A 
HETATM   13  C   UNL     1      40.568   8.557 -18.046  1.00  0.00     0.035 A 
HETATM   14  C   UNL     1      40.674   8.673 -19.429  1.00  0.00     0.034 A 
HETATM   15  S   UNL     1      39.480   8.450 -20.572  1.00  0.00    -0.069 SA
HETATM   16  C   UNL     1      41.854   9.008 -20.066  1.00  0.00     0.052 A 
HETATM   17  C   UNL     1      40.512   8.771 -21.883  1.00  0.00     0.087 A 
HETATM   18  N   UNL     1      41.775   9.085 -21.434  1.00  0.00    -0.344 N 
HETATM   19  C   UNL     1      42.925   9.516 -22.241  1.00  0.00     0.157 C 
HETATM   20  C   UNL     1      43.002   9.242 -19.296  1.00  0.00     0.032 A 
HETATM   21  C   UNL     1      42.926   9.125 -17.898  1.00  0.00     0.016 A 
BRANCH  17  22
HETATM   22  C   UNL     1      40.027   8.660 -23.296  1.00  0.00    -0.002 A 
HETATM   23  C   UNL     1      39.465   9.741 -24.000  1.00  0.00     0.016 A 
HETATM   24  C   UNL     1      39.047   9.599 -25.326  1.00  0.00     0.030 A 
HETATM   25  C   UNL     1      39.182   8.371 -26.009  1.00  0.00     0.029 A 
HETATM   26  C   UNL     1      39.766   7.296 -25.307  1.00  0.00     0.030 A 
HETATM   27  C   UNL     1      40.186   7.443 -23.982  1.00  0.00     0.016 A 
BRANCH  25  28
HETATM   28  N   UNL     1      38.750   8.225 -27.379  1.00  0.00    -0.390 N 
HETATM   29  C   UNL     1      39.717   8.252 -28.470  1.00  0.00     0.149 C 
HETATM   30  C   UNL     1      37.339   8.048 -27.699  1.00  0.00     0.149 C 
ENDBRANCH  25  28
ENDBRANCH  17  22
ENDBRANCH   4  12
BRANCH   6  31
HETATM   31  S   UNL     1      44.096  10.234 -11.751  1.00  0.00     0.131 S 
HETATM   32  O   UNL     1      43.623  11.545 -11.102  1.00  0.00    -0.598 OA
HETATM   33  O   UNL     1      45.057   9.705 -10.675  1.00  0.00    -0.598 OA
BRANCH  31  34
HETATM   34  O   UNL     1      45.129  10.716 -13.038  1.00  0.00    -0.292 OA
HETATM   35  H   UNL     1      45.296   9.889 -13.558  1.00  0.00     0.232 HD
ENDBRANCH  31  34
ENDBRANCH   6  31
TORSDOF 5
ENDMDL
MODEL 13
REMARK VINA RESULT:      -7.7     38.119     40.178
REMARK  5 active torsions:
REMARK  status: ('A' for Active; 'I' for Inactive)
REMARK    1  A    between atoms: S_3  and  O_4 
REMARK    2  A    between atoms: S_3  and  C_15 
REMARK    3  A    between atoms: N_9  and  C_30 
REMARK    4  A    between atoms: C_11  and  C_13 
REMARK    5  A    between atoms: C_18  and  C_25 
ROOT
HETATM    1  S   UNL     1       8.840 -13.287  -8.929  1.00  0.00    -0.068 SA
HETATM    2  N   UNL     1      10.369 -15.138  -9.708  1.00  0.00    -0.344 N 
HETATM    3  C   UNL     1      10.313 -15.200  -8.336  1.00  0.00     0.053 A 
HETATM    4  C   UNL     1       9.617 -14.097 -10.199  1.00  0.00     0.087 A 
HETATM    5  C   UNL     1       9.507 -14.244  -7.730  1.00  0.00     0.057 A 
HETATM    6  C   UNL     1       9.329 -14.168  -6.341  1.00  0.00     0.097 A 
HETATM    7  C   UNL     1      10.009 -15.117  -5.536  1.00  0.00    -0.037 A 
HETATM    8  C   UNL     1      10.978 -16.141  -7.537  1.00  0.00     0.031 A 
HETATM    9  C   UNL     1      11.111 -16.141 -10.486  1.00  0.00     0.157 C 
HETATM   10  C   UNL     1      10.826 -16.094  -6.147  1.00  0.00     0.011 A 
HETATM   11  C   UNL     1       9.881 -15.111  -4.035  1.00  0.00     0.050 C 
ENDROOT
BRANCH   4  12
HETATM   12  C   UNL     1       9.471 -13.638 -11.617  1.00  0.00    -0.001 A 
HETATM   13  C   UNL     1       9.672 -14.495 -12.723  1.00  0.00     0.035 A 
HETATM   14  C   UNL     1       9.542 -13.980 -14.009  1.00  0.00     0.034 A 
HETATM   15  S   UNL     1       9.717 -14.785 -15.460  1.00  0.00    -0.069 SA
HETATM   16  C   UNL     1       9.233 -12.656 -14.261  1.00  0.00     0.052 A 
HETATM   17  C   UNL     1       9.409 -13.403 -16.399  1.00  0.00     0.087 A 
HETATM   18  N   UNL     1       9.136 -12.323 -15.589  1.00  0.00    -0.344 N 
HETATM   19  C   UNL     1       8.728 -10.976 -16.009  1.00  0.00     0.157 C 
HETATM   20  C   UNL     1       9.041 -11.784 -13.180  1.00  0.00     0.032 A 
HETATM   21  C   UNL     1       9.173 -12.275 -11.870  1.00  0.00     0.016 A 
BRANCH  17  22
HETATM   22  C   UNL     1       9.488 -13.449 -17.894  1.00  0.00    -0.002 A 
HETATM   23  C   UNL     1       8.353 -13.399 -18.723  1.00  0.00     0.016 A 
HETATM   24  C   UNL     1       8.474 -13.420 -20.115  1.00  0.00     0.030 A 
HETATM   25  C   UNL     1       9.739 -13.483 -20.739  1.00  0.00     0.029 A 
HETATM   26  C   UNL     1      10.876 -13.511 -19.904  1.00  0.00     0.030 A 
HETATM   27  C   UNL     1      10.751 -13.486 -18.513  1.00  0.00     0.016 A 
BRANCH  25  28
HETATM   28  N   UNL     1       9.865 -13.505 -22.177  1.00  0.00    -0.390 N 
HETATM   29  C   UNL     1       8.797 -12.989 -23.025  1.00  0.00     0.149 C 
HETATM   30  C   UNL     1      11.061 -14.045 -22.810  1.00  0.00     0.149 C 
ENDBRANCH  25  28
ENDBRANCH  17  22
ENDBRANCH   4  12
BRANCH   6  31
HETATM   31  S   UNL     1       8.266 -12.895  -5.621  1.00  0.00     0.131 S 
HETATM   32  O   UNL     1       8.720 -11.471  -5.982  1.00  0.00    -0.598 OA
HETATM   33  O   UNL     1       6.861 -12.920  -6.241  1.00  0.00    -0.598 OA
BRANCH  31  34
HETATM   34  O   UNL     1       7.978 -12.858  -3.926  1.00  0.00    -0.292 OA
HETATM   35  H   UNL     1       7.502 -13.705  -3.728  1.00  0.00     0.232 HD
ENDBRANCH  31  34
ENDBRANCH   6  31
TORSDOF 5
ENDMDL
MODEL 14
REMARK VINA RESULT:      -7.6      4.146      6.501
REMARK  5 active torsions:
REMARK  status: ('A' for Active; 'I' for Inactive)
REMARK    1  A    between atoms: S_3  and  O_4 
REMARK    2  A    between atoms: S_3  and  C_15 
REMARK    3  A    between atoms: N_9  and  C_30 
REMARK    4  A    between atoms: C_11  and  C_13 
REMARK    5  A    between atoms: C_18  and  C_25 
ROOT
HETATM    1  S   UNL     1      43.155   9.393 -11.821  1.00  0.00    -0.068 SA
HETATM    2  N   UNL     1      41.181   7.822 -11.741  1.00  0.00    -0.344 N 
HETATM    3  C   UNL     1      41.469   8.054 -13.064  1.00  0.00     0.053 A 
HETATM    4  C   UNL     1      42.020   8.525 -10.909  1.00  0.00     0.087 A 
HETATM    5  C   UNL     1      42.541   8.906 -13.299  1.00  0.00     0.057 A 
HETATM    6  C   UNL     1      42.977   9.245 -14.589  1.00  0.00     0.097 A 
HETATM    7  C   UNL     1      42.280   8.683 -15.689  1.00  0.00    -0.037 A 
HETATM    8  C   UNL     1      40.788   7.494 -14.155  1.00  0.00     0.031 A 
HETATM    9  C   UNL     1      40.131   6.872 -11.345  1.00  0.00     0.157 C 
HETATM   10  C   UNL     1      41.193   7.812 -15.456  1.00  0.00     0.011 A 
HETATM   11  C   UNL     1      42.674   8.992 -17.109  1.00  0.00     0.050 C 
ENDROOT
BRANCH   4  12
HETATM   12  C   UNL     1      41.996   8.611  -9.415  1.00  0.00    -0.001 A 
HETATM   13  C   UNL     1      40.964   8.044  -8.632  1.00  0.00     0.035 A 
HETATM   14  C   UNL     1      41.006   8.194  -7.249  1.00  0.00     0.034 A 
HETATM   15  S   UNL     1      39.923   7.612  -6.121  1.00  0.00    -0.069 SA
HETATM   16  C   UNL     1      42.010   8.884  -6.598  1.00  0.00     0.052 A 
HETATM   17  C   UNL     1      40.758   8.280  -4.801  1.00  0.00     0.087 A 
HETATM   18  N   UNL     1      41.896   8.925  -5.230  1.00  0.00    -0.344 N 
HETATM   19  C   UNL     1      42.934   9.548  -4.397  1.00  0.00     0.157 C 
HETATM   20  C   UNL     1      43.038   9.466  -7.353  1.00  0.00     0.032 A 
HETATM   21  C   UNL     1      43.018   9.337  -8.752  1.00  0.00     0.016 A 
BRANCH  17  22
HETATM   22  C   UNL     1      40.225   8.162  -3.407  1.00  0.00    -0.002 A 
HETATM   23  C   UNL     1      40.503   7.067  -2.570  1.00  0.00     0.016 A 
HETATM   24  C   UNL     1      40.004   7.009  -1.266  1.00  0.00     0.030 A 
HETATM   25  C   UNL     1      39.210   8.051  -0.739  1.00  0.00     0.029 A 
HETATM   26  C   UNL     1      38.952   9.158  -1.573  1.00  0.00     0.030 A 
HETATM   27  C   UNL     1      39.456   9.214  -2.875  1.00  0.00     0.016 A 
BRANCH  25  28
HETATM   28  N   UNL     1      38.694   7.991   0.609  1.00  0.00    -0.390 N 
HETATM   29  C   UNL     1      38.978   6.845   1.463  1.00  0.00     0.149 C 
HETATM   30  C   UNL     1      37.878   9.076   1.140  1.00  0.00     0.149 C 
ENDBRANCH  25  28
ENDBRANCH  17  22
ENDBRANCH   4  12
BRANCH   6  31
HETATM   31  S   UNL     1      44.379  10.364 -14.820  1.00  0.00     0.131 S 
HETATM   32  O   UNL     1      45.139  10.636 -13.511  1.00  0.00    -0.598 OA
HETATM   33  O   UNL     1      45.481   9.714 -15.669  1.00  0.00    -0.598 OA
BRANCH  31  34
HETATM   34  O   UNL     1      44.150  11.909 -15.536  1.00  0.00    -0.292 OA
HETATM   35  H   UNL     1      44.828  11.962 -16.257  1.00  0.00     0.232 HD
ENDBRANCH  31  34
ENDBRANCH   6  31
TORSDOF 5
ENDMDL
MODEL 15
REMARK VINA RESULT:      -7.5     36.274     37.469
REMARK  5 active torsions:
REMARK  status: ('A' for Active; 'I' for Inactive)
REMARK    1  A    between atoms: S_3  and  O_4 
REMARK    2  A    between atoms: S_3  and  C_15 
REMARK    3  A    between atoms: N_9  and  C_30 
REMARK    4  A    between atoms: C_11  and  C_13 
REMARK    5  A    between atoms: C_18  and  C_25 
ROOT
HETATM    1  S   UNL     1      68.103 -17.141 -18.090  1.00  0.00    -0.068 SA
HETATM    2  N   UNL     1      68.179 -14.620 -18.185  1.00  0.00    -0.344 N 
HETATM    3  C   UNL     1      67.948 -15.074 -19.461  1.00  0.00     0.053 A 
HETATM    4  C   UNL     1      68.320 -15.659 -17.296  1.00  0.00     0.087 A 
HETATM    5  C   UNL     1      67.874 -16.454 -19.597  1.00  0.00     0.057 A 
HETATM    6  C   UNL     1      67.636 -17.087 -20.827  1.00  0.00     0.097 A 
HETATM    7  C   UNL     1      67.465 -16.264 -21.970  1.00  0.00    -0.037 A 
HETATM    8  C   UNL     1      67.771 -14.263 -20.592  1.00  0.00     0.031 A 
HETATM    9  C   UNL     1      68.193 -13.182 -17.878  1.00  0.00     0.157 C 
HETATM   10  C   UNL     1      67.535 -14.860 -21.836  1.00  0.00     0.011 A 
HETATM   11  C   UNL     1      67.209 -16.854 -23.331  1.00  0.00     0.050 C 
ENDROOT
BRANCH   4  12
HETATM   12  C   UNL     1      68.654 -15.602 -15.837  1.00  0.00    -0.001 A 
HETATM   13  C   UNL     1      67.682 -15.762 -14.823  1.00  0.00     0.035 A 
HETATM   14  C   UNL     1      68.074 -15.668 -13.491  1.00  0.00     0.034 A 
HETATM   15  S   UNL     1      67.126 -15.829 -12.128  1.00  0.00    -0.069 SA
HETATM   16  C   UNL     1      69.378 -15.413 -13.108  1.00  0.00     0.052 A 
HETATM   17  C   UNL     1      68.413 -15.547 -11.056  1.00  0.00     0.087 A 
HETATM   18  N   UNL     1      69.586 -15.361 -11.752  1.00  0.00    -0.344 N 
HETATM   19  C   UNL     1      70.934 -15.186 -11.194  1.00  0.00     0.157 C 
HETATM   20  C   UNL     1      70.357 -15.238 -14.096  1.00  0.00     0.032 A 
HETATM   21  C   UNL     1      69.989 -15.321 -15.449  1.00  0.00     0.016 A 
BRANCH  17  22
HETATM   22  C   UNL     1      68.189 -15.488  -9.576  1.00  0.00    -0.002 A 
HETATM   23  C   UNL     1      68.081 -16.636  -8.771  1.00  0.00     0.016 A 
HETATM   24  C   UNL     1      67.897 -16.535  -7.389  1.00  0.00     0.030 A 
HETATM   25  C   UNL     1      67.822 -15.278  -6.751  1.00  0.00     0.029 A 
HETATM   26  C   UNL     1      67.953 -14.129  -7.559  1.00  0.00     0.030 A 
HETATM   27  C   UNL     1      68.141 -14.234  -8.939  1.00  0.00     0.016 A 
BRANCH  25  28
HETATM   28  N   UNL     1      67.631 -15.172  -5.323  1.00  0.00    -0.390 N 
HETATM   29  C   UNL     1      67.502 -16.369  -4.501  1.00  0.00     0.149 C 
HETATM   30  C   UNL     1      67.562 -13.868  -4.678  1.00  0.00     0.149 C 
ENDBRANCH  25  28
ENDBRANCH  17  22
ENDBRANCH   4  12
BRANCH   6  31
HETATM   31  S   UNL     1      67.555 -18.891 -20.930  1.00  0.00     0.131 S 
HETATM   32  O   UNL     1      68.630 -19.478 -21.859  1.00  0.00    -0.598 OA
HETATM   33  O   UNL     1      67.933 -19.547 -19.594  1.00  0.00    -0.598 OA
BRANCH  31  34
HETATM   34  O   UNL     1      66.092 -19.671 -21.385  1.00  0.00    -0.292 OA
HETATM   35  H   UNL     1      65.503 -18.943 -21.709  1.00  0.00     0.232 HD
ENDBRANCH  31  34
ENDBRANCH   6  31
TORSDOF 5
ENDMDL
MODEL 16
REMARK VINA RESULT:      -7.5     37.719     38.474
REMARK  5 active torsions:
REMARK  status: ('A' for Active; 'I' for Inactive)
REMARK    1  A    between atoms: S_3  and  O_4 
REMARK    2  A    between atoms: S_3  and  C_15 
REMARK    3  A    between atoms: N_9  and  C_30 
REMARK    4  A    between atoms: C_11  and  C_13 
REMARK    5  A    between atoms: C_18  and  C_25 
ROOT
HETATM    1  S   UNL     1       9.146 -12.989 -17.991  1.00  0.00    -0.068 SA
HETATM    2  N   UNL     1      10.338 -15.096 -17.275  1.00  0.00    -0.344 N 
HETATM    3  C   UNL     1      10.175 -15.157 -18.638  1.00  0.00     0.053 A 
HETATM    4  C   UNL     1       9.787 -13.950 -16.751  1.00  0.00     0.087 A 
HETATM    5  C   UNL     1       9.530 -14.067 -19.210  1.00  0.00     0.057 A 
HETATM    6  C   UNL     1       9.288 -13.963 -20.588  1.00  0.00     0.097 A 
HETATM    7  C   UNL     1       9.729 -15.025 -21.418  1.00  0.00    -0.037 A 
HETATM    8  C   UNL     1      10.616 -16.203 -19.463  1.00  0.00     0.031 A 
HETATM    9  C   UNL     1      11.080 -16.136 -16.549  1.00  0.00     0.157 C 
HETATM   10  C   UNL     1      10.389 -16.134 -20.842  1.00  0.00     0.011 A 
HETATM   11  C   UNL     1       9.510 -15.002 -22.908  1.00  0.00     0.050 C 
ENDROOT
BRANCH   4  12
HETATM   12  C   UNL     1       9.682 -13.537 -15.315  1.00  0.00    -0.001 A 
HETATM   13  C   UNL     1       9.957 -14.417 -14.243  1.00  0.00     0.035 A 
HETATM   14  C   UNL     1       9.808 -13.959 -12.938  1.00  0.00     0.034 A 
HETATM   15  S   UNL     1      10.080 -14.795 -11.520  1.00  0.00    -0.069 SA
HETATM   16  C   UNL     1       9.393 -12.676 -12.635  1.00  0.00     0.052 A 
HETATM   17  C   UNL     1       9.636 -13.490 -10.528  1.00  0.00     0.087 A 
HETATM   18  N   UNL     1       9.310 -12.393 -11.294  1.00  0.00    -0.344 N 
HETATM   19  C   UNL     1       8.967 -11.045 -10.820  1.00  0.00     0.157 C 
HETATM   20  C   UNL     1       9.103 -11.789 -13.681  1.00  0.00     0.032 A 
HETATM   21  C   UNL     1       9.237 -12.226 -15.009  1.00  0.00     0.016 A 
BRANCH  17  22
HETATM   22  C   UNL     1       9.598 -13.627  -9.037  1.00  0.00    -0.002 A 
HETATM   23  C   UNL     1      10.757 -13.684  -8.243  1.00  0.00     0.016 A 
HETATM   24  C   UNL     1      10.675 -13.789  -6.852  1.00  0.00     0.030 A 
HETATM   25  C   UNL     1       9.428 -13.832  -6.193  1.00  0.00     0.029 A 
HETATM   26  C   UNL     1       8.268 -13.752  -6.991  1.00  0.00     0.030 A 
HETATM   27  C   UNL     1       8.353 -13.644  -8.381  1.00  0.00     0.016 A 
BRANCH  25  28
HETATM   28  N   UNL     1       9.343 -13.940  -4.755  1.00  0.00    -0.390 N 
HETATM   29  C   UNL     1       8.062 -14.182  -4.103  1.00  0.00     0.149 C 
HETATM   30  C   UNL     1      10.535 -13.808  -3.929  1.00  0.00     0.149 C 
ENDBRANCH  25  28
ENDBRANCH  17  22
ENDBRANCH   4  12
BRANCH   6  31
HETATM   31  S   UNL     1       8.441 -12.515 -21.263  1.00  0.00     0.131 S 
HETATM   32  O   UNL     1       8.352 -12.545 -22.798  1.00  0.00    -0.598 OA
HETATM   33  O   UNL     1       6.952 -12.508 -20.884  1.00  0.00    -0.598 OA
BRANCH  31  34
HETATM   34  O   UNL     1       8.982 -10.930 -20.875  1.00  0.00    -0.292 OA
HETATM   35  H   UNL     1       8.511 -10.334 -21.511  1.00  0.00     0.232 HD
ENDBRANCH  31  34
ENDBRANCH   6  31
TORSDOF 5
ENDMDL
MODEL 17
REMARK VINA RESULT:      -7.5      2.371      3.173
REMARK  5 active torsions:
REMARK  status: ('A' for Active; 'I' for Inactive)
REMARK    1  A    between atoms: S_3  and  O_4 
REMARK    2  A    between atoms: S_3  and  C_15 
REMARK    3  A    between atoms: N_9  and  C_30 
REMARK    4  A    between atoms: C_11  and  C_13 
REMARK    5  A    between atoms: C_18  and  C_25 
ROOT
HETATM    1  S   UNL     1      40.323   8.565 -15.443  1.00  0.00    -0.068 SA
HETATM    2  N   UNL     1      39.749  10.947 -14.834  1.00  0.00    -0.344 N 
HETATM    3  C   UNL     1      39.761  10.863 -16.206  1.00  0.00     0.053 A 
HETATM    4  C   UNL     1      40.074   9.745 -14.251  1.00  0.00     0.087 A 
HETATM    5  C   UNL     1      40.061   9.609 -16.723  1.00  0.00     0.057 A 
HETATM    6  C   UNL     1      40.108   9.344 -18.099  1.00  0.00     0.097 A 
HETATM    7  C   UNL     1      39.833  10.416 -18.987  1.00  0.00    -0.037 A 
HETATM    8  C   UNL     1      39.482  11.919 -17.086  1.00  0.00     0.031 A 
HETATM    9  C   UNL     1      39.361  12.188 -14.150  1.00  0.00     0.157 C 
HETATM   10  C   UNL     1      39.523  11.692 -18.467  1.00  0.00     0.011 A 
HETATM   11  C   UNL     1      39.863  10.227 -20.481  1.00  0.00     0.050 C 
ENDROOT
BRANCH   4  12
HETATM   12  C   UNL     1      40.248   9.429 -12.798  1.00  0.00    -0.001 A 
HETATM   13  C   UNL     1      40.959  10.271 -11.911  1.00  0.00     0.035 A 
HETATM   14  C   UNL     1      41.095   9.888 -10.580  1.00  0.00     0.034 A 
HETATM   15  S   UNL     1      41.871  10.707  -9.352  1.00  0.00    -0.069 SA
HETATM   16  C   UNL     1      40.574   8.710 -10.080  1.00  0.00     0.052 A 
HETATM   17  C   UNL     1      41.539   9.515  -8.188  1.00  0.00     0.087 A 
HETATM   18  N   UNL     1      40.797   8.497  -8.742  1.00  0.00    -0.344 N 
HETATM   19  C   UNL     1      40.228   7.331  -8.051  1.00  0.00     0.157 C 
HETATM   20  C   UNL     1      39.876   7.853 -10.943  1.00  0.00     0.032 A 
HETATM   21  C   UNL     1      39.728   8.210 -12.293  1.00  0.00     0.016 A 
BRANCH  17  22
HETATM   22  C   UNL     1      42.061   9.631  -6.789  1.00  0.00    -0.002 A 
HETATM   23  C   UNL     1      43.276   9.056  -6.374  1.00  0.00     0.016 A 
HETATM   24  C   UNL     1      43.737   9.210  -5.064  1.00  0.00     0.030 A 
HETATM   25  C   UNL     1      43.007   9.954  -4.113  1.00  0.00     0.029 A 
HETATM   26  C   UNL     1      41.800  10.548  -4.539  1.00  0.00     0.030 A 
HETATM   27  C   UNL     1      41.344  10.395  -5.851  1.00  0.00     0.016 A 
BRANCH  25  28
HETATM   28  N   UNL     1      43.483  10.113  -2.759  1.00  0.00    -0.390 N 
HETATM   29  C   UNL     1      43.044   9.206  -1.706  1.00  0.00     0.149 C 
HETATM   30  C   UNL     1      44.410  11.185  -2.419  1.00  0.00     0.149 C 
ENDBRANCH  25  28
ENDBRANCH  17  22
ENDBRANCH   4  12
BRANCH   6  31
HETATM   31  S   UNL     1      40.508   7.687 -18.702  1.00  0.00     0.131 S 
HETATM   32  O   UNL     1      41.926   7.598 -19.288  1.00  0.00    -0.598 OA
HETATM   33  O   UNL     1      40.603   6.678 -17.547  1.00  0.00    -0.598 OA
BRANCH  31  34
HETATM   34  O   UNL     1      39.495   6.913 -19.856  1.00  0.00    -0.292 OA
HETATM   35  H   UNL     1      39.243   7.626 -20.496  1.00  0.00     0.232 HD
ENDBRANCH  31  34
ENDBRANCH   6  31
TORSDOF 5
ENDMDL
MODEL 18
REMARK VINA RESULT:      -7.4     38.109     40.369
REMARK  5 active torsions:
REMARK  status: ('A' for Active; 'I' for Inactive)
REMARK    1  A    between atoms: S_3  and  O_4 
REMARK    2  A    between atoms: S_3  and  C_15 
REMARK    3  A    between atoms: N_9  and  C_30 
REMARK    4  A    between atoms: C_11  and  C_13 
REMARK    5  A    between atoms: C_18  and  C_25 
ROOT
HETATM    1  S   UNL     1       9.577 -13.727  -7.552  1.00  0.00    -0.068 SA
HETATM    2  N   UNL     1      10.748 -15.924  -7.970  1.00  0.00    -0.344 N 
HETATM    3  C   UNL     1      10.521 -15.828  -6.618  1.00  0.00     0.053 A 
HETATM    4  C   UNL     1      10.302 -14.808  -8.638  1.00  0.00     0.087 A 
HETATM    5  C   UNL     1       9.877 -14.669  -6.203  1.00  0.00     0.057 A 
HETATM    6  C   UNL     1       9.560 -14.412  -4.861  1.00  0.00     0.097 A 
HETATM    7  C   UNL     1       9.921 -15.390  -3.899  1.00  0.00    -0.037 A 
HETATM    8  C   UNL     1      10.869 -16.796  -5.665  1.00  0.00     0.031 A 
HETATM    9  C   UNL     1      11.339 -17.133  -8.560  1.00  0.00     0.157 C 
HETATM   10  C   UNL     1      10.572 -16.573  -4.316  1.00  0.00     0.011 A 
HETATM   11  C   UNL     1       9.625 -15.200  -2.435  1.00  0.00     0.050 C 
ENDROOT
BRANCH   4  12
HETATM   12  C   UNL     1      10.424 -14.480 -10.094  1.00  0.00    -0.001 A 
HETATM   13  C   UNL     1       9.308 -14.421 -10.962  1.00  0.00     0.035 A 
HETATM   14  C   UNL     1       9.514 -14.136 -12.308  1.00  0.00     0.034 A 
HETATM   15  S   UNL     1       8.370 -14.001 -13.515  1.00  0.00    -0.069 SA
HETATM   16  C   UNL     1      10.768 -13.914 -12.846  1.00  0.00     0.052 A 
HETATM   17  C   UNL     1       9.516 -13.677 -14.726  1.00  0.00     0.087 A 
HETATM   18  N   UNL     1      10.784 -13.638 -14.190  1.00  0.00    -0.344 N 
HETATM   19  C   UNL     1      12.033 -13.295 -14.883  1.00  0.00     0.157 C 
HETATM   20  C   UNL     1      11.890 -13.979 -12.008  1.00  0.00     0.032 A 
HETATM   21  C   UNL     1      11.713 -14.272 -10.646  1.00  0.00     0.016 A 
BRANCH  17  22
HETATM   22  C   UNL     1       9.105 -13.511 -16.157  1.00  0.00    -0.002 A 
HETATM   23  C   UNL     1       9.142 -12.276 -16.827  1.00  0.00     0.016 A 
HETATM   24  C   UNL     1       8.772 -12.171 -18.170  1.00  0.00     0.030 A 
HETATM   25  C   UNL     1       8.357 -13.302 -18.906  1.00  0.00     0.029 A 
HETATM   26  C   UNL     1       8.342 -14.544 -18.236  1.00  0.00     0.030 A 
HETATM   27  C   UNL     1       8.716 -14.645 -16.894  1.00  0.00     0.016 A 
BRANCH  25  28
HETATM   28  N   UNL     1       7.974 -13.195 -20.294  1.00  0.00    -0.390 N 
HETATM   29  C   UNL     1       7.227 -14.265 -20.943  1.00  0.00     0.149 C 
HETATM   30  C   UNL     1       8.328 -12.016 -21.073  1.00  0.00     0.149 C 
ENDBRANCH  25  28
ENDBRANCH  17  22
ENDBRANCH   4  12
BRANCH   6  31
HETATM   31  S   UNL     1       8.722 -12.879  -4.393  1.00  0.00     0.131 S 
HETATM   32  O   UNL     1       9.629 -11.646  -4.526  1.00  0.00    -0.598 OA
HETATM   33  O   UNL     1       7.602 -12.528  -5.383  1.00  0.00    -0.598 OA
BRANCH  31  34
HETATM   34  O   UNL     1       7.983 -12.729  -2.849  1.00  0.00    -0.292 OA
HETATM   35  H   UNL     1       8.590 -12.143  -2.328  1.00  0.00     0.232 HD
ENDBRANCH  31  34
ENDBRANCH   6  31
TORSDOF 5
ENDMDL
MODEL 19
REMARK VINA RESULT:      -7.4     38.012     40.207
REMARK  5 active torsions:
REMARK  status: ('A' for Active; 'I' for Inactive)
REMARK    1  A    between atoms: S_3  and  O_4 
REMARK    2  A    between atoms: S_3  and  C_15 
REMARK    3  A    between atoms: N_9  and  C_30 
REMARK    4  A    between atoms: C_11  and  C_13 
REMARK    5  A    between atoms: C_18  and  C_25 
ROOT
HETATM    1  S   UNL     1       9.755 -13.306  -7.871  1.00  0.00    -0.068 SA
HETATM    2  N   UNL     1       8.250 -15.162  -8.684  1.00  0.00    -0.344 N 
HETATM    3  C   UNL     1       8.100 -15.076  -7.321  1.00  0.00     0.053 A 
HETATM    4  C   UNL     1       9.170 -14.252  -9.150  1.00  0.00     0.087 A 
HETATM    5  C   UNL     1       8.862 -14.096  -6.699  1.00  0.00     0.057 A 
HETATM    6  C   UNL     1       8.825 -13.866  -5.315  1.00  0.00     0.097 A 
HETATM    7  C   UNL     1       7.964 -14.680  -4.534  1.00  0.00    -0.037 A 
HETATM    8  C   UNL     1       7.245 -15.874  -6.547  1.00  0.00     0.031 A 
HETATM    9  C   UNL     1       7.441 -16.093  -9.484  1.00  0.00     0.157 C 
HETATM   10  C   UNL     1       7.184 -15.675  -5.163  1.00  0.00     0.011 A 
HETATM   11  C   UNL     1       7.861 -14.508  -3.042  1.00  0.00     0.050 C 
ENDROOT
BRANCH   4  12
HETATM   12  C   UNL     1       9.678 -14.069 -10.546  1.00  0.00    -0.001 A 
HETATM   13  C   UNL     1       8.820 -13.887 -11.655  1.00  0.00     0.035 A 
HETATM   14  C   UNL     1       9.375 -13.750 -12.924  1.00  0.00     0.034 A 
HETATM   15  S   UNL     1       8.581 -13.517 -14.372  1.00  0.00    -0.069 SA
HETATM   16  C   UNL     1      10.737 -13.795 -13.157  1.00  0.00     0.052 A 
HETATM   17  C   UNL     1      10.011 -13.495 -15.288  1.00  0.00     0.087 A 
HETATM   18  N   UNL     1      11.109 -13.635 -14.468  1.00  0.00    -0.344 N 
HETATM   19  C   UNL     1      12.524 -13.571 -14.857  1.00  0.00     0.157 C 
HETATM   20  C   UNL     1      11.607 -13.987 -12.075  1.00  0.00     0.032 A 
HETATM   21  C   UNL     1      11.075 -14.134 -10.783  1.00  0.00     0.016 A 
BRANCH  17  22
HETATM   22  C   UNL     1       9.973 -13.376 -16.781  1.00  0.00    -0.002 A 
HETATM   23  C   UNL     1      10.586 -14.306 -17.640  1.00  0.00     0.016 A 
HETATM   24  C   UNL     1      10.506 -14.169 -19.028  1.00  0.00     0.030 A 
HETATM   25  C   UNL     1       9.799 -13.098 -19.618  1.00  0.00     0.029 A 
HETATM   26  C   UNL     1       9.167 -12.180 -18.754  1.00  0.00     0.030 A 
HETATM   27  C   UNL     1       9.247 -12.323 -17.366  1.00  0.00     0.016 A 
BRANCH  25  28
HETATM   28  N   UNL     1       9.716 -12.956 -21.053  1.00  0.00    -0.390 N 
HETATM   29  C   UNL     1       8.832 -11.963 -21.651  1.00  0.00     0.149 C 
HETATM   30  C   UNL     1      10.512 -13.804 -21.931  1.00  0.00     0.149 C 
ENDBRANCH  25  28
ENDBRANCH  17  22
ENDBRANCH   4  12
BRANCH   6  31
HETATM   31  S   UNL     1       9.847 -12.572  -4.572  1.00  0.00     0.131 S 
HETATM   32  O   UNL     1       9.728 -12.533  -3.040  1.00  0.00    -0.598 OA
HETATM   33  O   UNL     1      11.343 -12.873  -4.742  1.00  0.00    -0.598 OA
BRANCH  31  34
HETATM   34  O   UNL     1       9.685 -10.938  -5.077  1.00  0.00    -0.292 OA
HETATM   35  H   UNL     1       9.776 -10.963  -6.064  1.00  0.00     0.232 HD
ENDBRANCH  31  34
ENDBRANCH   6  31
TORSDOF 5
ENDMDL
MODEL 20
REMARK VINA RESULT:      -7.4     38.172     40.432
REMARK  5 active torsions:
REMARK  status: ('A' for Active; 'I' for Inactive)
REMARK    1  A    between atoms: S_3  and  O_4 
REMARK    2  A    between atoms: S_3  and  C_15 
REMARK    3  A    between atoms: N_9  and  C_30 
REMARK    4  A    between atoms: C_11  and  C_13 
REMARK    5  A    between atoms: C_18  and  C_25 
ROOT
HETATM    1  S   UNL     1       9.098 -13.841  -7.928  1.00  0.00    -0.068 SA
HETATM    2  N   UNL     1      10.504 -15.915  -8.234  1.00  0.00    -0.344 N 
HETATM    3  C   UNL     1      10.610 -15.535  -6.918  1.00  0.00     0.053 A 
HETATM    4  C   UNL     1       9.710 -15.048  -8.948  1.00  0.00     0.087 A 
HETATM    5  C   UNL     1       9.892 -14.399  -6.566  1.00  0.00     0.057 A 
HETATM    6  C   UNL     1       9.882 -13.877  -5.264  1.00  0.00     0.097 A 
HETATM    7  C   UNL     1      10.643 -14.553  -4.276  1.00  0.00    -0.037 A 
HETATM    8  C   UNL     1      11.356 -16.205  -5.937  1.00  0.00     0.031 A 
HETATM    9  C   UNL     1      11.137 -17.147  -8.726  1.00  0.00     0.157 C 
HETATM   10  C   UNL     1      11.371 -15.712  -4.627  1.00  0.00     0.011 A 
HETATM   11  C   UNL     1      10.695 -14.065  -2.853  1.00  0.00     0.050 C 
ENDROOT
BRANCH   4  12
HETATM   12  C   UNL     1       9.401 -15.057 -10.413  1.00  0.00    -0.001 A 
HETATM   13  C   UNL     1      10.219 -14.414 -11.372  1.00  0.00     0.035 A 
HETATM   14  C   UNL     1       9.844 -14.449 -12.711  1.00  0.00     0.034 A 
HETATM   15  S   UNL     1      10.640 -13.782 -14.017  1.00  0.00    -0.069 SA
HETATM   16  C   UNL     1       8.696 -15.078 -13.154  1.00  0.00     0.052 A 
HETATM   17  C   UNL     1       9.476 -14.300 -15.140  1.00  0.00     0.087 A 
HETATM   18  N   UNL     1       8.486 -15.020 -14.509  1.00  0.00    -0.344 N 
HETATM   19  C   UNL     1       7.355 -15.718 -15.136  1.00  0.00     0.157 C 
HETATM   20  C   UNL     1       7.863 -15.711 -12.221  1.00  0.00     0.032 A 
HETATM   21  C   UNL     1       8.213 -15.687 -10.861  1.00  0.00     0.016 A 
BRANCH  17  22
HETATM   22  C   UNL     1       9.582 -13.936 -16.589  1.00  0.00    -0.002 A 
HETATM   23  C   UNL     1      10.507 -14.535 -17.464  1.00  0.00     0.016 A 
HETATM   24  C   UNL     1      10.555 -14.182 -18.815  1.00  0.00     0.030 A 
HETATM   25  C   UNL     1       9.673 -13.220 -19.353  1.00  0.00     0.029 A 
HETATM   26  C   UNL     1       8.733 -12.638 -18.478  1.00  0.00     0.030 A 
HETATM   27  C   UNL     1       8.685 -12.996 -17.128  1.00  0.00     0.016 A 
BRANCH  25  28
HETATM   28  N   UNL     1       9.723 -12.855 -20.749  1.00  0.00    -0.390 N 
HETATM   29  C   UNL     1      10.496 -13.648 -21.698  1.00  0.00     0.149 C 
HETATM   30  C   UNL     1       9.003 -11.686 -21.238  1.00  0.00     0.149 C 
ENDBRANCH  25  28
ENDBRANCH  17  22
ENDBRANCH   4  12
BRANCH   6  31
HETATM   31  S   UNL     1       8.925 -12.391  -4.878  1.00  0.00     0.131 S 
HETATM   32  O   UNL     1       7.721 -12.204  -5.816  1.00  0.00    -0.598 OA
HETATM   33  O   UNL     1       8.222 -12.515  -3.518  1.00  0.00    -0.598 OA
BRANCH  31  34
HETATM   34  O   UNL     1       9.692 -10.854  -4.819  1.00  0.00    -0.292 OA
HETATM   35  H   UNL     1       9.644 -10.580  -3.868  1.00  0.00     0.232 HD
ENDBRANCH  31  34
ENDBRANCH   6  31
TORSDOF 5
ENDMDL
