MODEL 1
REMARK VINA RESULT:      -3.6      0.000      0.000
REMARK  19 active torsions:
REMARK  status: ('A' for Active; 'I' for Inactive)
REMARK    1  A    between atoms: O_1  and  C_22 
REMARK    2  A    between atoms: C_3  and  C_4 
REMARK    3  A    between atoms: C_3  and  C_5 
REMARK    4  A    between atoms: C_4  and  C_6 
REMARK    5  A    between atoms: C_5  and  C_7 
REMARK    6  A    between atoms: C_6  and  C_8 
REMARK    7  A    between atoms: C_7  and  C_9 
REMARK    8  A    between atoms: C_8  and  C_10 
REMARK    9  A    between atoms: C_9  and  C_11 
REMARK   10  A    between atoms: C_10  and  C_12 
REMARK   11  A    between atoms: C_11  and  C_13 
REMARK   12  A    between atoms: C_12  and  C_14 
REMARK   13  A    between atoms: C_13  and  C_15 
REMARK   14  A    between atoms: C_14  and  C_16 
REMARK   15  A    between atoms: C_15  and  C_17 
REMARK   16  A    between atoms: C_16  and  C_18 
REMARK   17  A    between atoms: C_17  and  C_19 
REMARK   18  A    between atoms: C_18  and  C_20 
REMARK   19  A    between atoms: C_20  and  C_22 
ROOT
HETATM    1  O   UNL     1       3.176 -17.635  -8.081  1.00  0.00    -0.776 OA
HETATM    2  H   UNL     1       2.742 -16.791  -8.271  1.00  0.00     0.167 HD
ENDROOT
BRANCH   1   3
HETATM    3  C   UNL     1       3.896 -17.821  -6.954  1.00  0.00     0.139 C 
HETATM    4  O   UNL     1       3.608 -18.735  -6.196  1.00  0.00    -0.650 OA
BRANCH   3   5
HETATM    5  C   UNL     1       5.024 -16.887  -6.606  1.00  0.00     0.110 C 
BRANCH   5   6
HETATM    6  C   UNL     1       6.334 -17.196  -7.352  1.00  0.00     0.010 C 
BRANCH   6   7
HETATM    7  C   UNL     1       7.206 -15.977  -7.717  1.00  0.00     0.001 C 
BRANCH   7   8
HETATM    8  C   UNL     1       7.218 -14.848  -6.666  1.00  0.00     0.000 C 
BRANCH   8   9
HETATM    9  C   UNL     1       7.768 -13.497  -7.167  1.00  0.00     0.000 C 
BRANCH   9  10
HETATM   10  C   UNL     1       7.660 -12.336  -6.160  1.00  0.00     0.000 C 
BRANCH  10  11
HETATM   11  C   UNL     1       8.902 -11.425  -6.078  1.00  0.00     0.000 C 
BRANCH  11  12
HETATM   12  C   UNL     1       9.696 -11.520  -4.760  1.00  0.00     0.000 C 
BRANCH  12  13
HETATM   13  C   UNL     1       9.107 -12.483  -3.711  1.00  0.00     0.000 C 
BRANCH  13  14
HETATM   14  C   UNL     1       9.787 -13.865  -3.639  1.00  0.00     0.000 C 
BRANCH  14  15
HETATM   15  C   UNL     1      11.311 -13.855  -3.873  1.00  0.00     0.000 C 
BRANCH  15  16
HETATM   16  C   UNL     1      11.800 -14.752  -5.028  1.00  0.00     0.000 C 
BRANCH  16  17
HETATM   17  C   UNL     1      11.359 -14.301  -6.436  1.00  0.00     0.000 C 
BRANCH  17  18
HETATM   18  C   UNL     1      10.938 -15.441  -7.385  1.00  0.00     0.000 C 
BRANCH  18  19
HETATM   19  C   UNL     1      10.580 -14.998  -8.817  1.00  0.00     0.000 C 
BRANCH  19  20
HETATM   20  C   UNL     1      11.003 -13.562  -9.182  1.00  0.00     0.000 C 
BRANCH  20  21
HETATM   21  C   UNL     1      10.346 -12.992 -10.456  1.00  0.00    -0.000 C 
BRANCH  21  22
HETATM   22  C   UNL     1       9.228 -11.963 -10.213  1.00  0.00    -0.005 C 
HETATM   23  C   UNL     1       7.899 -12.353 -10.857  1.00  0.00     0.005 C 
ENDBRANCH  21  22
ENDBRANCH  20  21
ENDBRANCH  19  20
ENDBRANCH  18  19
ENDBRANCH  17  18
ENDBRANCH  16  17
ENDBRANCH  15  16
ENDBRANCH  14  15
ENDBRANCH  13  14
ENDBRANCH  12  13
ENDBRANCH  11  12
ENDBRANCH  10  11
ENDBRANCH   9  10
ENDBRANCH   8   9
ENDBRANCH   7   8
ENDBRANCH   6   7
ENDBRANCH   5   6
ENDBRANCH   3   5
ENDBRANCH   1   3
TORSDOF 19
ENDMDL
MODEL 2
REMARK VINA RESULT:      -3.4     11.914     14.621
REMARK  19 active torsions:
REMARK  status: ('A' for Active; 'I' for Inactive)
REMARK    1  A    between atoms: O_1  and  C_22 
REMARK    2  A    between atoms: C_3  and  C_4 
REMARK    3  A    between atoms: C_3  and  C_5 
REMARK    4  A    between atoms: C_4  and  C_6 
REMARK    5  A    between atoms: C_5  and  C_7 
REMARK    6  A    between atoms: C_6  and  C_8 
REMARK    7  A    between atoms: C_7  and  C_9 
REMARK    8  A    between atoms: C_8  and  C_10 
REMARK    9  A    between atoms: C_9  and  C_11 
REMARK   10  A    between atoms: C_10  and  C_12 
REMARK   11  A    between atoms: C_11  and  C_13 
REMARK   12  A    between atoms: C_12  and  C_14 
REMARK   13  A    between atoms: C_13  and  C_15 
REMARK   14  A    between atoms: C_14  and  C_16 
REMARK   15  A    between atoms: C_15  and  C_17 
REMARK   16  A    between atoms: C_16  and  C_18 
REMARK   17  A    between atoms: C_17  and  C_19 
REMARK   18  A    between atoms: C_18  and  C_20 
REMARK   19  A    between atoms: C_20  and  C_22 
ROOT
HETATM    1  O   UNL     1      16.699 -25.727  -9.274  1.00  0.00    -0.776 OA
HETATM    2  H   UNL     1      16.865 -25.278 -10.115  1.00  0.00     0.167 HD
ENDROOT
BRANCH   1   3
HETATM    3  C   UNL     1      15.631 -25.418  -8.508  1.00  0.00     0.139 C 
HETATM    4  O   UNL     1      15.620 -25.734  -7.327  1.00  0.00    -0.650 OA
BRANCH   3   5
HETATM    5  C   UNL     1      14.437 -24.724  -9.108  1.00  0.00     0.110 C 
BRANCH   5   6
HETATM    6  C   UNL     1      13.263 -25.672  -9.416  1.00  0.00     0.010 C 
BRANCH   6   7
HETATM    7  C   UNL     1      13.366 -26.466 -10.734  1.00  0.00     0.001 C 
BRANCH   7   8
HETATM    8  C   UNL     1      14.182 -25.777 -11.847  1.00  0.00     0.000 C 
BRANCH   8   9
HETATM    9  C   UNL     1      14.185 -26.510 -13.204  1.00  0.00     0.000 C 
BRANCH   9  10
HETATM   10  C   UNL     1      15.175 -25.953 -14.244  1.00  0.00     0.000 C 
BRANCH  10  11
HETATM   11  C   UNL     1      14.730 -26.099 -15.713  1.00  0.00     0.000 C 
BRANCH  11  12
HETATM   12  C   UNL     1      14.063 -24.849 -16.321  1.00  0.00     0.000 C 
BRANCH  12  13
HETATM   13  C   UNL     1      12.526 -24.810 -16.210  1.00  0.00     0.000 C 
BRANCH  13  14
HETATM   14  C   UNL     1      11.965 -23.695 -15.306  1.00  0.00     0.000 C 
BRANCH  14  15
HETATM   15  C   UNL     1      13.019 -22.935 -14.476  1.00  0.00     0.000 C 
BRANCH  15  16
HETATM   16  C   UNL     1      12.649 -22.714 -12.995  1.00  0.00     0.000 C 
BRANCH  16  17
HETATM   17  C   UNL     1      11.147 -22.843 -12.673  1.00  0.00     0.000 C 
BRANCH  17  18
HETATM   18  C   UNL     1      10.776 -24.025 -11.755  1.00  0.00     0.000 C 
BRANCH  18  19
HETATM   19  C   UNL     1       9.878 -25.098 -12.403  1.00  0.00     0.000 C 
BRANCH  19  20
HETATM   20  C   UNL     1      10.630 -26.187 -13.195  1.00  0.00     0.000 C 
BRANCH  20  21
HETATM   21  C   UNL     1      10.089 -27.620 -13.007  1.00  0.00    -0.000 C 
BRANCH  21  22
HETATM   22  C   UNL     1      11.140 -28.737 -13.129  1.00  0.00    -0.005 C 
HETATM   23  C   UNL     1      11.272 -29.582 -11.863  1.00  0.00     0.005 C 
ENDBRANCH  21  22
ENDBRANCH  20  21
ENDBRANCH  19  20
ENDBRANCH  18  19
ENDBRANCH  17  18
ENDBRANCH  16  17
ENDBRANCH  15  16
ENDBRANCH  14  15
ENDBRANCH  13  14
ENDBRANCH  12  13
ENDBRANCH  11  12
ENDBRANCH  10  11
ENDBRANCH   9  10
ENDBRANCH   8   9
ENDBRANCH   7   8
ENDBRANCH   6   7
ENDBRANCH   5   6
ENDBRANCH   3   5
ENDBRANCH   1   3
TORSDOF 19
ENDMDL
MODEL 3
REMARK VINA RESULT:      -3.4      4.276      6.530
REMARK  19 active torsions:
REMARK  status: ('A' for Active; 'I' for Inactive)
REMARK    1  A    between atoms: O_1  and  C_22 
REMARK    2  A    between atoms: C_3  and  C_4 
REMARK    3  A    between atoms: C_3  and  C_5 
REMARK    4  A    between atoms: C_4  and  C_6 
REMARK    5  A    between atoms: C_5  and  C_7 
REMARK    6  A    between atoms: C_6  and  C_8 
REMARK    7  A    between atoms: C_7  and  C_9 
REMARK    8  A    between atoms: C_8  and  C_10 
REMARK    9  A    between atoms: C_9  and  C_11 
REMARK   10  A    between atoms: C_10  and  C_12 
REMARK   11  A    between atoms: C_11  and  C_13 
REMARK   12  A    between atoms: C_12  and  C_14 
REMARK   13  A    between atoms: C_13  and  C_15 
REMARK   14  A    between atoms: C_14  and  C_16 
REMARK   15  A    between atoms: C_15  and  C_17 
REMARK   16  A    between atoms: C_16  and  C_18 
REMARK   17  A    between atoms: C_17  and  C_19 
REMARK   18  A    between atoms: C_18  and  C_20 
REMARK   19  A    between atoms: C_20  and  C_22 
ROOT
HETATM    1  O   UNL     1       9.572 -10.774  -4.823  1.00  0.00    -0.776 OA
HETATM    2  H   UNL     1       8.924 -10.057  -4.791  1.00  0.00     0.167 HD
ENDROOT
BRANCH   1   3
HETATM    3  C   UNL     1       9.202 -12.048  -5.073  1.00  0.00     0.139 C 
HETATM    4  O   UNL     1       8.125 -12.458  -4.666  1.00  0.00    -0.650 OA
BRANCH   3   5
HETATM    5  C   UNL     1      10.125 -12.979  -5.815  1.00  0.00     0.110 C 
BRANCH   5   6
HETATM    6  C   UNL     1       9.509 -13.565  -7.098  1.00  0.00     0.010 C 
BRANCH   6   7
HETATM    7  C   UNL     1       8.935 -12.541  -8.099  1.00  0.00     0.001 C 
BRANCH   7   8
HETATM    8  C   UNL     1       9.844 -12.232  -9.306  1.00  0.00     0.000 C 
BRANCH   8   9
HETATM    9  C   UNL     1       9.154 -11.490 -10.469  1.00  0.00     0.000 C 
BRANCH   9  10
HETATM   10  C   UNL     1       8.136 -12.330 -11.266  1.00  0.00     0.000 C 
BRANCH  10  11
HETATM   11  C   UNL     1       8.577 -12.710 -12.693  1.00  0.00     0.000 C 
BRANCH  11  12
HETATM   12  C   UNL     1       8.780 -14.219 -12.934  1.00  0.00     0.000 C 
BRANCH  12  13
HETATM   13  C   UNL     1       9.936 -14.857 -12.138  1.00  0.00     0.000 C 
BRANCH  13  14
HETATM   14  C   UNL     1       9.502 -15.824 -11.018  1.00  0.00     0.000 C 
BRANCH  14  15
HETATM   15  C   UNL     1      10.467 -15.908  -9.819  1.00  0.00     0.000 C 
BRANCH  15  16
HETATM   16  C   UNL     1      11.923 -16.271 -10.176  1.00  0.00     0.000 C 
BRANCH  16  17
HETATM   17  C   UNL     1      12.320 -17.733  -9.884  1.00  0.00     0.000 C 
BRANCH  17  18
HETATM   18  C   UNL     1      11.715 -18.778 -10.844  1.00  0.00     0.000 C 
BRANCH  18  19
HETATM   19  C   UNL     1      12.221 -18.698 -12.298  1.00  0.00     0.000 C 
BRANCH  19  20
HETATM   20  C   UNL     1      11.201 -18.151 -13.315  1.00  0.00     0.000 C 
BRANCH  20  21
HETATM   21  C   UNL     1      11.782 -17.184 -14.368  1.00  0.00    -0.000 C 
BRANCH  21  22
HETATM   22  C   UNL     1      10.764 -16.625 -15.377  1.00  0.00    -0.005 C 
HETATM   23  C   UNL     1      11.053 -15.182 -15.787  1.00  0.00     0.005 C 
ENDBRANCH  21  22
ENDBRANCH  20  21
ENDBRANCH  19  20
ENDBRANCH  18  19
ENDBRANCH  17  18
ENDBRANCH  16  17
ENDBRANCH  15  16
ENDBRANCH  14  15
ENDBRANCH  13  14
ENDBRANCH  12  13
ENDBRANCH  11  12
ENDBRANCH  10  11
ENDBRANCH   9  10
ENDBRANCH   8   9
ENDBRANCH   7   8
ENDBRANCH   6   7
ENDBRANCH   5   6
ENDBRANCH   3   5
ENDBRANCH   1   3
TORSDOF 19
ENDMDL
MODEL 4
REMARK VINA RESULT:      -3.3      3.267      5.194
REMARK  19 active torsions:
REMARK  status: ('A' for Active; 'I' for Inactive)
REMARK    1  A    between atoms: O_1  and  C_22 
REMARK    2  A    between atoms: C_3  and  C_4 
REMARK    3  A    between atoms: C_3  and  C_5 
REMARK    4  A    between atoms: C_4  and  C_6 
REMARK    5  A    between atoms: C_5  and  C_7 
REMARK    6  A    between atoms: C_6  and  C_8 
REMARK    7  A    between atoms: C_7  and  C_9 
REMARK    8  A    between atoms: C_8  and  C_10 
REMARK    9  A    between atoms: C_9  and  C_11 
REMARK   10  A    between atoms: C_10  and  C_12 
REMARK   11  A    between atoms: C_11  and  C_13 
REMARK   12  A    between atoms: C_12  and  C_14 
REMARK   13  A    between atoms: C_13  and  C_15 
REMARK   14  A    between atoms: C_14  and  C_16 
REMARK   15  A    between atoms: C_15  and  C_17 
REMARK   16  A    between atoms: C_16  and  C_18 
REMARK   17  A    between atoms: C_17  and  C_19 
REMARK   18  A    between atoms: C_18  and  C_20 
REMARK   19  A    between atoms: C_20  and  C_22 
ROOT
HETATM    1  O   UNL     1       7.773 -14.201 -14.556  1.00  0.00    -0.776 OA
HETATM    2  H   UNL     1       7.371 -15.081 -14.556  1.00  0.00     0.167 HD
ENDROOT
BRANCH   1   3
HETATM    3  C   UNL     1       8.387 -13.705 -13.461  1.00  0.00     0.139 C 
HETATM    4  O   UNL     1       7.725 -13.164 -12.588  1.00  0.00    -0.650 OA
BRANCH   3   5
HETATM    5  C   UNL     1       9.885 -13.779 -13.326  1.00  0.00     0.110 C 
BRANCH   5   6
HETATM    6  C   UNL     1      10.354 -14.547 -12.076  1.00  0.00     0.010 C 
BRANCH   6   7
HETATM    7  C   UNL     1      11.550 -13.934 -11.319  1.00  0.00     0.001 C 
BRANCH   7   8
HETATM    8  C   UNL     1      11.184 -13.189 -10.019  1.00  0.00     0.000 C 
BRANCH   8   9
HETATM    9  C   UNL     1      10.028 -12.177 -10.149  1.00  0.00     0.000 C 
BRANCH   9  10
HETATM   10  C   UNL     1       8.757 -12.533  -9.354  1.00  0.00     0.000 C 
BRANCH  10  11
HETATM   11  C   UNL     1       8.971 -12.746  -7.841  1.00  0.00     0.000 C 
BRANCH  11  12
HETATM   12  C   UNL     1       7.919 -13.638  -7.152  1.00  0.00     0.000 C 
BRANCH  12  13
HETATM   13  C   UNL     1       7.766 -13.412  -5.635  1.00  0.00     0.000 C 
BRANCH  13  14
HETATM   14  C   UNL     1       8.536 -12.200  -5.074  1.00  0.00     0.000 C 
BRANCH  14  15
HETATM   15  C   UNL     1       9.735 -12.550  -4.170  1.00  0.00     0.000 C 
BRANCH  15  16
HETATM   16  C   UNL     1      11.013 -12.981  -4.918  1.00  0.00     0.000 C 
BRANCH  16  17
HETATM   17  C   UNL     1      11.756 -14.184  -4.301  1.00  0.00     0.000 C 
BRANCH  17  18
HETATM   18  C   UNL     1      11.530 -15.529  -5.019  1.00  0.00     0.000 C 
BRANCH  18  19
HETATM   19  C   UNL     1      11.001 -15.417  -6.462  1.00  0.00     0.000 C 
BRANCH  19  20
HETATM   20  C   UNL     1      10.877 -16.755  -7.218  1.00  0.00     0.000 C 
BRANCH  20  21
HETATM   21  C   UNL     1      11.033 -16.657  -8.749  1.00  0.00    -0.000 C 
BRANCH  21  22
HETATM   22  C   UNL     1       9.843 -17.192  -9.565  1.00  0.00    -0.005 C 
HETATM   23  C   UNL     1       8.569 -16.369  -9.384  1.00  0.00     0.005 C 
ENDBRANCH  21  22
ENDBRANCH  20  21
ENDBRANCH  19  20
ENDBRANCH  18  19
ENDBRANCH  17  18
ENDBRANCH  16  17
ENDBRANCH  15  16
ENDBRANCH  14  15
ENDBRANCH  13  14
ENDBRANCH  12  13
ENDBRANCH  11  12
ENDBRANCH  10  11
ENDBRANCH   9  10
ENDBRANCH   8   9
ENDBRANCH   7   8
ENDBRANCH   6   7
ENDBRANCH   5   6
ENDBRANCH   3   5
ENDBRANCH   1   3
TORSDOF 19
ENDMDL
MODEL 5
REMARK VINA RESULT:      -3.3      7.092      9.771
REMARK  19 active torsions:
REMARK  status: ('A' for Active; 'I' for Inactive)
REMARK    1  A    between atoms: O_1  and  C_22 
REMARK    2  A    between atoms: C_3  and  C_4 
REMARK    3  A    between atoms: C_3  and  C_5 
REMARK    4  A    between atoms: C_4  and  C_6 
REMARK    5  A    between atoms: C_5  and  C_7 
REMARK    6  A    between atoms: C_6  and  C_8 
REMARK    7  A    between atoms: C_7  and  C_9 
REMARK    8  A    between atoms: C_8  and  C_10 
REMARK    9  A    between atoms: C_9  and  C_11 
REMARK   10  A    between atoms: C_10  and  C_12 
REMARK   11  A    between atoms: C_11  and  C_13 
REMARK   12  A    between atoms: C_12  and  C_14 
REMARK   13  A    between atoms: C_13  and  C_15 
REMARK   14  A    between atoms: C_14  and  C_16 
REMARK   15  A    between atoms: C_15  and  C_17 
REMARK   16  A    between atoms: C_16  and  C_18 
REMARK   17  A    between atoms: C_17  and  C_19 
REMARK   18  A    between atoms: C_18  and  C_20 
REMARK   19  A    between atoms: C_20  and  C_22 
ROOT
HETATM    1  O   UNL     1       8.154 -14.592 -18.768  1.00  0.00    -0.776 OA
HETATM    2  H   UNL     1       7.943 -15.240 -19.454  1.00  0.00     0.167 HD
ENDROOT
BRANCH   1   3
HETATM    3  C   UNL     1       8.263 -13.276 -19.050  1.00  0.00     0.139 C 
HETATM    4  O   UNL     1       7.593 -12.792 -19.951  1.00  0.00    -0.650 OA
BRANCH   3   5
HETATM    5  C   UNL     1       9.231 -12.410 -18.289  1.00  0.00     0.110 C 
BRANCH   5   6
HETATM    6  C   UNL     1       9.470 -12.875 -16.841  1.00  0.00     0.010 C 
BRANCH   6   7
HETATM    7  C   UNL     1       8.306 -12.638 -15.857  1.00  0.00     0.001 C 
BRANCH   7   8
HETATM    8  C   UNL     1       7.689 -13.918 -15.258  1.00  0.00     0.000 C 
BRANCH   8   9
HETATM    9  C   UNL     1       7.990 -14.150 -13.763  1.00  0.00     0.000 C 
BRANCH   9  10
HETATM   10  C   UNL     1       8.550 -12.926 -13.012  1.00  0.00     0.000 C 
BRANCH  10  11
HETATM   11  C   UNL     1       9.786 -13.207 -12.135  1.00  0.00     0.000 C 
BRANCH  11  12
HETATM   12  C   UNL     1      10.738 -14.293 -12.677  1.00  0.00     0.000 C 
BRANCH  12  13
HETATM   13  C   UNL     1      11.657 -13.840 -13.829  1.00  0.00     0.000 C 
BRANCH  13  14
HETATM   14  C   UNL     1      11.806 -14.853 -14.981  1.00  0.00     0.000 C 
BRANCH  14  15
HETATM   15  C   UNL     1      10.870 -16.076 -14.900  1.00  0.00     0.000 C 
BRANCH  15  16
HETATM   16  C   UNL     1      11.479 -17.399 -15.408  1.00  0.00     0.000 C 
BRANCH  16  17
HETATM   17  C   UNL     1      12.630 -17.959 -14.548  1.00  0.00     0.000 C 
BRANCH  17  18
HETATM   18  C   UNL     1      12.304 -19.259 -13.787  1.00  0.00     0.000 C 
BRANCH  18  19
HETATM   19  C   UNL     1      11.410 -19.081 -12.544  1.00  0.00     0.000 C 
BRANCH  19  20
HETATM   20  C   UNL     1      11.716 -17.832 -11.693  1.00  0.00     0.000 C 
BRANCH  20  21
HETATM   21  C   UNL     1      12.410 -18.115 -10.345  1.00  0.00    -0.000 C 
BRANCH  21  22
HETATM   22  C   UNL     1      13.270 -19.392 -10.306  1.00  0.00    -0.005 C 
HETATM   23  C   UNL     1      13.532 -19.899  -8.889  1.00  0.00     0.005 C 
ENDBRANCH  21  22
ENDBRANCH  20  21
ENDBRANCH  19  20
ENDBRANCH  18  19
ENDBRANCH  17  18
ENDBRANCH  16  17
ENDBRANCH  15  16
ENDBRANCH  14  15
ENDBRANCH  13  14
ENDBRANCH  12  13
ENDBRANCH  11  12
ENDBRANCH  10  11
ENDBRANCH   9  10
ENDBRANCH   8   9
ENDBRANCH   7   8
ENDBRANCH   6   7
ENDBRANCH   5   6
ENDBRANCH   3   5
ENDBRANCH   1   3
TORSDOF 19
ENDMDL
MODEL 6
REMARK VINA RESULT:      -3.2      4.920      8.162
REMARK  19 active torsions:
REMARK  status: ('A' for Active; 'I' for Inactive)
REMARK    1  A    between atoms: O_1  and  C_22 
REMARK    2  A    between atoms: C_3  and  C_4 
REMARK    3  A    between atoms: C_3  and  C_5 
REMARK    4  A    between atoms: C_4  and  C_6 
REMARK    5  A    between atoms: C_5  and  C_7 
REMARK    6  A    between atoms: C_6  and  C_8 
REMARK    7  A    between atoms: C_7  and  C_9 
REMARK    8  A    between atoms: C_8  and  C_10 
REMARK    9  A    between atoms: C_9  and  C_11 
REMARK   10  A    between atoms: C_10  and  C_12 
REMARK   11  A    between atoms: C_11  and  C_13 
REMARK   12  A    between atoms: C_12  and  C_14 
REMARK   13  A    between atoms: C_13  and  C_15 
REMARK   14  A    between atoms: C_14  and  C_16 
REMARK   15  A    between atoms: C_15  and  C_17 
REMARK   16  A    between atoms: C_16  and  C_18 
REMARK   17  A    between atoms: C_17  and  C_19 
REMARK   18  A    between atoms: C_18  and  C_20 
REMARK   19  A    between atoms: C_20  and  C_22 
ROOT
HETATM    1  O   UNL     1      11.425 -13.871 -16.756  1.00  0.00    -0.776 OA
HETATM    2  H   UNL     1      12.012 -13.524 -17.443  1.00  0.00     0.167 HD
ENDROOT
BRANCH   1   3
HETATM    3  C   UNL     1      10.086 -13.902 -16.922  1.00  0.00     0.139 C 
HETATM    4  O   UNL     1       9.487 -14.963 -16.818  1.00  0.00    -0.650 OA
BRANCH   3   5
HETATM    5  C   UNL     1       9.330 -12.649 -17.274  1.00  0.00     0.110 C 
BRANCH   5   6
HETATM    6  C   UNL     1       8.629 -11.993 -16.070  1.00  0.00     0.010 C 
BRANCH   6   7
HETATM    7  C   UNL     1       9.552 -11.524 -14.926  1.00  0.00     0.001 C 
BRANCH   7   8
HETATM    8  C   UNL     1       9.672 -12.506 -13.743  1.00  0.00     0.000 C 
BRANCH   8   9
HETATM    9  C   UNL     1       8.341 -13.127 -13.272  1.00  0.00     0.000 C 
BRANCH   9  10
HETATM   10  C   UNL     1       8.175 -14.627 -13.583  1.00  0.00     0.000 C 
BRANCH  10  11
HETATM   11  C   UNL     1       9.195 -15.554 -12.891  1.00  0.00     0.000 C 
BRANCH  11  12
HETATM   12  C   UNL     1       8.607 -16.857 -12.315  1.00  0.00     0.000 C 
BRANCH  12  13
HETATM   13  C   UNL     1       7.081 -16.845 -12.098  1.00  0.00     0.000 C 
BRANCH  13  14
HETATM   14  C   UNL     1       6.630 -16.548 -10.654  1.00  0.00     0.000 C 
BRANCH  14  15
HETATM   15  C   UNL     1       7.773 -16.402  -9.630  1.00  0.00     0.000 C 
BRANCH  15  16
HETATM   16  C   UNL     1       7.786 -15.071  -8.852  1.00  0.00     0.000 C 
BRANCH  16  17
HETATM   17  C   UNL     1       7.942 -13.807  -9.723  1.00  0.00     0.000 C 
BRANCH  17  18
HETATM   18  C   UNL     1       8.825 -12.700  -9.115  1.00  0.00     0.000 C 
BRANCH  18  19
HETATM   19  C   UNL     1      10.330 -13.026  -9.052  1.00  0.00     0.000 C 
BRANCH  19  20
HETATM   20  C   UNL     1      10.980 -13.374 -10.406  1.00  0.00     0.000 C 
BRANCH  20  21
HETATM   21  C   UNL     1      11.819 -14.668 -10.413  1.00  0.00    -0.000 C 
BRANCH  21  22
HETATM   22  C   UNL     1      11.431 -15.707  -9.346  1.00  0.00    -0.005 C 
HETATM   23  C   UNL     1      11.447 -17.143  -9.868  1.00  0.00     0.005 C 
ENDBRANCH  21  22
ENDBRANCH  20  21
ENDBRANCH  19  20
ENDBRANCH  18  19
ENDBRANCH  17  18
ENDBRANCH  16  17
ENDBRANCH  15  16
ENDBRANCH  14  15
ENDBRANCH  13  14
ENDBRANCH  12  13
ENDBRANCH  11  12
ENDBRANCH  10  11
ENDBRANCH   9  10
ENDBRANCH   8   9
ENDBRANCH   7   8
ENDBRANCH   6   7
ENDBRANCH   5   6
ENDBRANCH   3   5
ENDBRANCH   1   3
TORSDOF 19
ENDMDL
MODEL 7
REMARK VINA RESULT:      -3.2      4.516      8.006
REMARK  19 active torsions:
REMARK  status: ('A' for Active; 'I' for Inactive)
REMARK    1  A    between atoms: O_1  and  C_22 
REMARK    2  A    between atoms: C_3  and  C_4 
REMARK    3  A    between atoms: C_3  and  C_5 
REMARK    4  A    between atoms: C_4  and  C_6 
REMARK    5  A    between atoms: C_5  and  C_7 
REMARK    6  A    between atoms: C_6  and  C_8 
REMARK    7  A    between atoms: C_7  and  C_9 
REMARK    8  A    between atoms: C_8  and  C_10 
REMARK    9  A    between atoms: C_9  and  C_11 
REMARK   10  A    between atoms: C_10  and  C_12 
REMARK   11  A    between atoms: C_11  and  C_13 
REMARK   12  A    between atoms: C_12  and  C_14 
REMARK   13  A    between atoms: C_13  and  C_15 
REMARK   14  A    between atoms: C_14  and  C_16 
REMARK   15  A    between atoms: C_15  and  C_17 
REMARK   16  A    between atoms: C_16  and  C_18 
REMARK   17  A    between atoms: C_17  and  C_19 
REMARK   18  A    between atoms: C_18  and  C_20 
REMARK   19  A    between atoms: C_20  and  C_22 
ROOT
HETATM    1  O   UNL     1       7.028 -12.481 -15.865  1.00  0.00    -0.776 OA
HETATM    2  H   UNL     1       6.640 -13.197 -15.343  1.00  0.00     0.167 HD
ENDROOT
BRANCH   1   3
HETATM    3  C   UNL     1       8.157 -12.662 -16.583  1.00  0.00     0.139 C 
HETATM    4  O   UNL     1       8.130 -12.534 -17.798  1.00  0.00    -0.650 OA
BRANCH   3   5
HETATM    5  C   UNL     1       9.440 -13.058 -15.901  1.00  0.00     0.110 C 
BRANCH   5   6
HETATM    6  C   UNL     1      10.059 -14.354 -16.456  1.00  0.00     0.010 C 
BRANCH   6   7
HETATM    7  C   UNL     1      11.281 -14.900 -15.690  1.00  0.00     0.001 C 
BRANCH   7   8
HETATM    8  C   UNL     1      10.979 -16.071 -14.734  1.00  0.00     0.000 C 
BRANCH   8   9
HETATM    9  C   UNL     1      10.995 -15.711 -13.234  1.00  0.00     0.000 C 
BRANCH   9  10
HETATM   10  C   UNL     1      11.196 -14.215 -12.925  1.00  0.00     0.000 C 
BRANCH  10  11
HETATM   11  C   UNL     1      10.297 -13.653 -11.805  1.00  0.00     0.000 C 
BRANCH  11  12
HETATM   12  C   UNL     1       8.999 -12.975 -12.287  1.00  0.00     0.000 C 
BRANCH  12  13
HETATM   13  C   UNL     1       8.247 -12.166 -11.212  1.00  0.00     0.000 C 
BRANCH  13  14
HETATM   14  C   UNL     1       8.775 -12.342  -9.775  1.00  0.00     0.000 C 
BRANCH  14  15
HETATM   15  C   UNL     1       8.086 -13.453  -8.958  1.00  0.00     0.000 C 
BRANCH  15  16
HETATM   16  C   UNL     1       8.590 -13.606  -7.508  1.00  0.00     0.000 C 
BRANCH  16  17
HETATM   17  C   UNL     1       7.922 -12.665  -6.484  1.00  0.00     0.000 C 
BRANCH  17  18
HETATM   18  C   UNL     1       8.839 -11.563  -5.916  1.00  0.00     0.000 C 
BRANCH  18  19
HETATM   19  C   UNL     1       9.598 -11.944  -4.629  1.00  0.00     0.000 C 
BRANCH  19  20
HETATM   20  C   UNL     1      10.896 -12.746  -4.850  1.00  0.00     0.000 C 
BRANCH  20  21
HETATM   21  C   UNL     1      10.790 -14.255  -4.546  1.00  0.00    -0.000 C 
BRANCH  21  22
HETATM   22  C   UNL     1      11.557 -15.173  -5.514  1.00  0.00    -0.005 C 
HETATM   23  C   UNL     1      11.676 -16.612  -5.014  1.00  0.00     0.005 C 
ENDBRANCH  21  22
ENDBRANCH  20  21
ENDBRANCH  19  20
ENDBRANCH  18  19
ENDBRANCH  17  18
ENDBRANCH  16  17
ENDBRANCH  15  16
ENDBRANCH  14  15
ENDBRANCH  13  14
ENDBRANCH  12  13
ENDBRANCH  11  12
ENDBRANCH  10  11
ENDBRANCH   9  10
ENDBRANCH   8   9
ENDBRANCH   7   8
ENDBRANCH   6   7
ENDBRANCH   5   6
ENDBRANCH   3   5
ENDBRANCH   1   3
TORSDOF 19
ENDMDL
MODEL 8
REMARK VINA RESULT:      -3.2      5.307      8.791
REMARK  19 active torsions:
REMARK  status: ('A' for Active; 'I' for Inactive)
REMARK    1  A    between atoms: O_1  and  C_22 
REMARK    2  A    between atoms: C_3  and  C_4 
REMARK    3  A    between atoms: C_3  and  C_5 
REMARK    4  A    between atoms: C_4  and  C_6 
REMARK    5  A    between atoms: C_5  and  C_7 
REMARK    6  A    between atoms: C_6  and  C_8 
REMARK    7  A    between atoms: C_7  and  C_9 
REMARK    8  A    between atoms: C_8  and  C_10 
REMARK    9  A    between atoms: C_9  and  C_11 
REMARK   10  A    between atoms: C_10  and  C_12 
REMARK   11  A    between atoms: C_11  and  C_13 
REMARK   12  A    between atoms: C_12  and  C_14 
REMARK   13  A    between atoms: C_13  and  C_15 
REMARK   14  A    between atoms: C_14  and  C_16 
REMARK   15  A    between atoms: C_15  and  C_17 
REMARK   16  A    between atoms: C_16  and  C_18 
REMARK   17  A    between atoms: C_17  and  C_19 
REMARK   18  A    between atoms: C_18  and  C_20 
REMARK   19  A    between atoms: C_20  and  C_22 
ROOT
HETATM    1  O   UNL     1       7.468 -14.637 -10.705  1.00  0.00    -0.776 OA
HETATM    2  H   UNL     1       6.771 -15.111 -11.180  1.00  0.00     0.167 HD
ENDROOT
BRANCH   1   3
HETATM    3  C   UNL     1       7.734 -13.338 -10.955  1.00  0.00     0.139 C 
HETATM    4  O   UNL     1       6.828 -12.517 -10.925  1.00  0.00    -0.650 OA
BRANCH   3   5
HETATM    5  C   UNL     1       9.129 -12.899 -11.310  1.00  0.00     0.110 C 
BRANCH   5   6
HETATM    6  C   UNL     1      10.185 -14.007 -11.146  1.00  0.00     0.010 C 
BRANCH   6   7
HETATM    7  C   UNL     1      10.677 -14.668 -12.450  1.00  0.00     0.001 C 
BRANCH   7   8
HETATM    8  C   UNL     1      11.526 -13.758 -13.361  1.00  0.00     0.000 C 
BRANCH   8   9
HETATM    9  C   UNL     1      10.908 -13.455 -14.741  1.00  0.00     0.000 C 
BRANCH   9  10
HETATM   10  C   UNL     1       9.983 -12.223 -14.785  1.00  0.00     0.000 C 
BRANCH  10  11
HETATM   11  C   UNL     1       8.488 -12.537 -14.998  1.00  0.00     0.000 C 
BRANCH  11  12
HETATM   12  C   UNL     1       8.093 -14.012 -14.783  1.00  0.00     0.000 C 
BRANCH  12  13
HETATM   13  C   UNL     1       7.647 -14.760 -16.055  1.00  0.00     0.000 C 
BRANCH  13  14
HETATM   14  C   UNL     1       8.159 -16.209 -16.172  1.00  0.00     0.000 C 
BRANCH  14  15
HETATM   15  C   UNL     1       9.693 -16.357 -16.236  1.00  0.00     0.000 C 
BRANCH  15  16
HETATM   16  C   UNL     1      10.317 -17.184 -15.094  1.00  0.00     0.000 C 
BRANCH  16  17
HETATM   17  C   UNL     1      11.857 -17.142 -15.025  1.00  0.00     0.000 C 
BRANCH  17  18
HETATM   18  C   UNL     1      12.568 -18.423 -15.504  1.00  0.00     0.000 C 
BRANCH  18  19
HETATM   19  C   UNL     1      13.396 -19.152 -14.428  1.00  0.00     0.000 C 
BRANCH  19  20
HETATM   20  C   UNL     1      12.588 -19.670 -13.222  1.00  0.00     0.000 C 
BRANCH  20  21
HETATM   21  C   UNL     1      13.132 -19.246 -11.841  1.00  0.00    -0.000 C 
BRANCH  21  22
HETATM   22  C   UNL     1      12.191 -18.354 -11.012  1.00  0.00    -0.005 C 
HETATM   23  C   UNL     1      10.781 -18.260 -11.594  1.00  0.00     0.005 C 
ENDBRANCH  21  22
ENDBRANCH  20  21
ENDBRANCH  19  20
ENDBRANCH  18  19
ENDBRANCH  17  18
ENDBRANCH  16  17
ENDBRANCH  15  16
ENDBRANCH  14  15
ENDBRANCH  13  14
ENDBRANCH  12  13
ENDBRANCH  11  12
ENDBRANCH  10  11
ENDBRANCH   9  10
ENDBRANCH   8   9
ENDBRANCH   7   8
ENDBRANCH   6   7
ENDBRANCH   5   6
ENDBRANCH   3   5
ENDBRANCH   1   3
TORSDOF 19
ENDMDL
MODEL 9
REMARK VINA RESULT:      -3.2     37.924     39.942
REMARK  19 active torsions:
REMARK  status: ('A' for Active; 'I' for Inactive)
REMARK    1  A    between atoms: O_1  and  C_22 
REMARK    2  A    between atoms: C_3  and  C_4 
REMARK    3  A    between atoms: C_3  and  C_5 
REMARK    4  A    between atoms: C_4  and  C_6 
REMARK    5  A    between atoms: C_5  and  C_7 
REMARK    6  A    between atoms: C_6  and  C_8 
REMARK    7  A    between atoms: C_7  and  C_9 
REMARK    8  A    between atoms: C_8  and  C_10 
REMARK    9  A    between atoms: C_9  and  C_11 
REMARK   10  A    between atoms: C_10  and  C_12 
REMARK   11  A    between atoms: C_11  and  C_13 
REMARK   12  A    between atoms: C_12  and  C_14 
REMARK   13  A    between atoms: C_13  and  C_15 
REMARK   14  A    between atoms: C_14  and  C_16 
REMARK   15  A    between atoms: C_15  and  C_17 
REMARK   16  A    between atoms: C_16  and  C_18 
REMARK   17  A    between atoms: C_17  and  C_19 
REMARK   18  A    between atoms: C_18  and  C_20 
REMARK   19  A    between atoms: C_20  and  C_22 
ROOT
HETATM    1  O   UNL     1      48.340 -15.990 -15.070  1.00  0.00    -0.776 OA
HETATM    2  H   UNL     1      48.248 -15.643 -14.172  1.00  0.00     0.167 HD
ENDROOT
BRANCH   1   3
HETATM    3  C   UNL     1      47.289 -16.514 -15.735  1.00  0.00     0.139 C 
HETATM    4  O   UNL     1      47.275 -16.496 -16.957  1.00  0.00    -0.650 OA
BRANCH   3   5
HETATM    5  C   UNL     1      46.116 -17.084 -14.983  1.00  0.00     0.110 C 
BRANCH   5   6
HETATM    6  C   UNL     1      46.452 -17.499 -13.538  1.00  0.00     0.010 C 
BRANCH   6   7
HETATM    7  C   UNL     1      45.396 -17.143 -12.472  1.00  0.00     0.001 C 
BRANCH   7   8
HETATM    8  C   UNL     1      45.970 -16.703 -11.110  1.00  0.00     0.000 C 
BRANCH   8   9
HETATM    9  C   UNL     1      47.304 -15.933 -11.182  1.00  0.00     0.000 C 
BRANCH   9  10
HETATM   10  C   UNL     1      48.459 -16.553 -10.372  1.00  0.00     0.000 C 
BRANCH  10  11
HETATM   11  C   UNL     1      49.685 -16.979 -11.204  1.00  0.00     0.000 C 
BRANCH  11  12
HETATM   12  C   UNL     1      49.973 -18.494 -11.214  1.00  0.00     0.000 C 
BRANCH  12  13
HETATM   13  C   UNL     1      48.800 -19.377 -11.684  1.00  0.00     0.000 C 
BRANCH  13  14
HETATM   14  C   UNL     1      48.249 -20.349 -10.621  1.00  0.00     0.000 C 
BRANCH  14  15
HETATM   15  C   UNL     1      46.873 -19.967 -10.040  1.00  0.00     0.000 C 
BRANCH  15  16
HETATM   16  C   UNL     1      46.870 -19.635  -8.534  1.00  0.00     0.000 C 
BRANCH  16  17
HETATM   17  C   UNL     1      45.605 -18.910  -8.029  1.00  0.00     0.000 C 
BRANCH  17  18
HETATM   18  C   UNL     1      45.848 -17.872  -6.915  1.00  0.00     0.000 C 
BRANCH  18  19
HETATM   19  C   UNL     1      46.557 -16.581  -7.370  1.00  0.00     0.000 C 
BRANCH  19  20
HETATM   20  C   UNL     1      47.330 -15.836  -6.264  1.00  0.00     0.000 C 
BRANCH  20  21
HETATM   21  C   UNL     1      48.415 -16.670  -5.551  1.00  0.00    -0.000 C 
BRANCH  21  22
HETATM   22  C   UNL     1      49.668 -16.972  -6.393  1.00  0.00    -0.005 C 
HETATM   23  C   UNL     1      49.777 -18.438  -6.808  1.00  0.00     0.005 C 
ENDBRANCH  21  22
ENDBRANCH  20  21
ENDBRANCH  19  20
ENDBRANCH  18  19
ENDBRANCH  17  18
ENDBRANCH  16  17
ENDBRANCH  15  16
ENDBRANCH  14  15
ENDBRANCH  13  14
ENDBRANCH  12  13
ENDBRANCH  11  12
ENDBRANCH  10  11
ENDBRANCH   9  10
ENDBRANCH   8   9
ENDBRANCH   7   8
ENDBRANCH   6   7
ENDBRANCH   5   6
ENDBRANCH   3   5
ENDBRANCH   1   3
TORSDOF 19
ENDMDL
MODEL 10
REMARK VINA RESULT:      -3.2      2.976      5.766
REMARK  19 active torsions:
REMARK  status: ('A' for Active; 'I' for Inactive)
REMARK    1  A    between atoms: O_1  and  C_22 
REMARK    2  A    between atoms: C_3  and  C_4 
REMARK    3  A    between atoms: C_3  and  C_5 
REMARK    4  A    between atoms: C_4  and  C_6 
REMARK    5  A    between atoms: C_5  and  C_7 
REMARK    6  A    between atoms: C_6  and  C_8 
REMARK    7  A    between atoms: C_7  and  C_9 
REMARK    8  A    between atoms: C_8  and  C_10 
REMARK    9  A    between atoms: C_9  and  C_11 
REMARK   10  A    between atoms: C_10  and  C_12 
REMARK   11  A    between atoms: C_11  and  C_13 
REMARK   12  A    between atoms: C_12  and  C_14 
REMARK   13  A    between atoms: C_13  and  C_15 
REMARK   14  A    between atoms: C_14  and  C_16 
REMARK   15  A    between atoms: C_15  and  C_17 
REMARK   16  A    between atoms: C_16  and  C_18 
REMARK   17  A    between atoms: C_17  and  C_19 
REMARK   18  A    between atoms: C_18  and  C_20 
REMARK   19  A    between atoms: C_20  and  C_22 
ROOT
HETATM    1  O   UNL     1       6.748 -12.939  -6.157  1.00  0.00    -0.776 OA
HETATM    2  H   UNL     1       6.118 -12.303  -5.790  1.00  0.00     0.167 HD
ENDROOT
BRANCH   1   3
HETATM    3  C   UNL     1       7.976 -13.105  -5.622  1.00  0.00     0.139 C 
HETATM    4  O   UNL     1       8.524 -12.168  -5.060  1.00  0.00    -0.650 OA
BRANCH   3   5
HETATM    5  C   UNL     1       8.692 -14.424  -5.749  1.00  0.00     0.110 C 
BRANCH   5   6
HETATM    6  C   UNL     1       7.783 -15.577  -6.214  1.00  0.00     0.010 C 
BRANCH   6   7
HETATM    7  C   UNL     1       8.496 -16.902  -6.552  1.00  0.00     0.001 C 
BRANCH   7   8
HETATM    8  C   UNL     1       8.023 -17.582  -7.852  1.00  0.00     0.000 C 
BRANCH   8   9
HETATM    9  C   UNL     1       6.692 -17.048  -8.421  1.00  0.00     0.000 C 
BRANCH   9  10
HETATM   10  C   UNL     1       6.212 -17.738  -9.713  1.00  0.00     0.000 C 
BRANCH  10  11
HETATM   11  C   UNL     1       6.829 -17.188 -11.015  1.00  0.00     0.000 C 
BRANCH  11  12
HETATM   12  C   UNL     1       6.356 -15.778 -11.418  1.00  0.00     0.000 C 
BRANCH  12  13
HETATM   13  C   UNL     1       7.469 -14.832 -11.911  1.00  0.00     0.000 C 
BRANCH  13  14
HETATM   14  C   UNL     1       7.595 -13.508 -11.131  1.00  0.00     0.000 C 
BRANCH  14  15
HETATM   15  C   UNL     1       7.939 -13.663  -9.636  1.00  0.00     0.000 C 
BRANCH  15  16
HETATM   16  C   UNL     1       8.863 -12.569  -9.062  1.00  0.00     0.000 C 
BRANCH  16  17
HETATM   17  C   UNL     1      10.042 -12.170  -9.972  1.00  0.00     0.000 C 
BRANCH  17  18
HETATM   18  C   UNL     1      11.310 -13.033  -9.815  1.00  0.00     0.000 C 
BRANCH  18  19
HETATM   19  C   UNL     1      11.579 -14.014 -10.972  1.00  0.00     0.000 C 
BRANCH  19  20
HETATM   20  C   UNL     1      11.025 -15.437 -10.765  1.00  0.00     0.000 C 
BRANCH  20  21
HETATM   21  C   UNL     1      10.893 -15.878  -9.292  1.00  0.00    -0.000 C 
BRANCH  21  22
HETATM   22  C   UNL     1      11.544 -17.230  -8.951  1.00  0.00    -0.005 C 
HETATM   23  C   UNL     1      12.412 -17.783 -10.081  1.00  0.00     0.005 C 
ENDBRANCH  21  22
ENDBRANCH  20  21
ENDBRANCH  19  20
ENDBRANCH  18  19
ENDBRANCH  17  18
ENDBRANCH  16  17
ENDBRANCH  15  16
ENDBRANCH  14  15
ENDBRANCH  13  14
ENDBRANCH  12  13
ENDBRANCH  11  12
ENDBRANCH  10  11
ENDBRANCH   9  10
ENDBRANCH   8   9
ENDBRANCH   7   8
ENDBRANCH   6   7
ENDBRANCH   5   6
ENDBRANCH   3   5
ENDBRANCH   1   3
TORSDOF 19
ENDMDL
MODEL 11
REMARK VINA RESULT:      -3.2     39.061     41.466
REMARK  19 active torsions:
REMARK  status: ('A' for Active; 'I' for Inactive)
REMARK    1  A    between atoms: O_1  and  C_22 
REMARK    2  A    between atoms: C_3  and  C_4 
REMARK    3  A    between atoms: C_3  and  C_5 
REMARK    4  A    between atoms: C_4  and  C_6 
REMARK    5  A    between atoms: C_5  and  C_7 
REMARK    6  A    between atoms: C_6  and  C_8 
REMARK    7  A    between atoms: C_7  and  C_9 
REMARK    8  A    between atoms: C_8  and  C_10 
REMARK    9  A    between atoms: C_9  and  C_11 
REMARK   10  A    between atoms: C_10  and  C_12 
REMARK   11  A    between atoms: C_11  and  C_13 
REMARK   12  A    between atoms: C_12  and  C_14 
REMARK   13  A    between atoms: C_13  and  C_15 
REMARK   14  A    between atoms: C_14  and  C_16 
REMARK   15  A    between atoms: C_15  and  C_17 
REMARK   16  A    between atoms: C_16  and  C_18 
REMARK   17  A    between atoms: C_17  and  C_19 
REMARK   18  A    between atoms: C_18  and  C_20 
REMARK   19  A    between atoms: C_20  and  C_22 
ROOT
HETATM    1  O   UNL     1      52.723 -19.562 -15.682  1.00  0.00    -0.776 OA
HETATM    2  H   UNL     1      52.800 -18.611 -15.840  1.00  0.00     0.167 HD
ENDROOT
BRANCH   1   3
HETATM    3  C   UNL     1      51.521 -20.161 -15.550  1.00  0.00     0.139 C 
HETATM    4  O   UNL     1      51.404 -21.349 -15.813  1.00  0.00    -0.650 OA
BRANCH   3   5
HETATM    5  C   UNL     1      50.315 -19.368 -15.122  1.00  0.00     0.110 C 
BRANCH   5   6
HETATM    6  C   UNL     1      49.725 -18.489 -16.240  1.00  0.00     0.010 C 
BRANCH   6   7
HETATM    7  C   UNL     1      49.632 -16.981 -15.933  1.00  0.00     0.001 C 
BRANCH   7   8
HETATM    8  C   UNL     1      48.197 -16.421 -15.847  1.00  0.00     0.000 C 
BRANCH   8   9
HETATM    9  C   UNL     1      47.490 -16.643 -14.494  1.00  0.00     0.000 C 
BRANCH   9  10
HETATM   10  C   UNL     1      46.827 -18.023 -14.323  1.00  0.00     0.000 C 
BRANCH  10  11
HETATM   11  C   UNL     1      45.902 -18.155 -13.096  1.00  0.00     0.000 C 
BRANCH  11  12
HETATM   12  C   UNL     1      46.285 -19.274 -12.107  1.00  0.00     0.000 C 
BRANCH  12  13
HETATM   13  C   UNL     1      47.626 -19.974 -12.401  1.00  0.00     0.000 C 
BRANCH  13  14
HETATM   14  C   UNL     1      48.617 -20.009 -11.220  1.00  0.00     0.000 C 
BRANCH  14  15
HETATM   15  C   UNL     1      49.908 -19.191 -11.428  1.00  0.00     0.000 C 
BRANCH  15  16
HETATM   16  C   UNL     1      49.697 -17.770 -11.990  1.00  0.00     0.000 C 
BRANCH  16  17
HETATM   17  C   UNL     1      49.467 -16.676 -10.928  1.00  0.00     0.000 C 
BRANCH  17  18
HETATM   18  C   UNL     1      47.998 -16.245 -10.742  1.00  0.00     0.000 C 
BRANCH  18  19
HETATM   19  C   UNL     1      47.315 -16.785  -9.471  1.00  0.00     0.000 C 
BRANCH  19  20
HETATM   20  C   UNL     1      48.246 -17.539  -8.500  1.00  0.00     0.000 C 
BRANCH  20  21
HETATM   21  C   UNL     1      47.554 -18.110  -7.244  1.00  0.00    -0.000 C 
BRANCH  21  22
HETATM   22  C   UNL     1      48.168 -17.675  -5.902  1.00  0.00    -0.005 C 
HETATM   23  C   UNL     1      49.402 -16.788  -6.063  1.00  0.00     0.005 C 
ENDBRANCH  21  22
ENDBRANCH  20  21
ENDBRANCH  19  20
ENDBRANCH  18  19
ENDBRANCH  17  18
ENDBRANCH  16  17
ENDBRANCH  15  16
ENDBRANCH  14  15
ENDBRANCH  13  14
ENDBRANCH  12  13
ENDBRANCH  11  12
ENDBRANCH  10  11
ENDBRANCH   9  10
ENDBRANCH   8   9
ENDBRANCH   7   8
ENDBRANCH   6   7
ENDBRANCH   5   6
ENDBRANCH   3   5
ENDBRANCH   1   3
TORSDOF 19
ENDMDL
MODEL 12
REMARK VINA RESULT:      -3.2      3.740      5.807
REMARK  19 active torsions:
REMARK  status: ('A' for Active; 'I' for Inactive)
REMARK    1  A    between atoms: O_1  and  C_22 
REMARK    2  A    between atoms: C_3  and  C_4 
REMARK    3  A    between atoms: C_3  and  C_5 
REMARK    4  A    between atoms: C_4  and  C_6 
REMARK    5  A    between atoms: C_5  and  C_7 
REMARK    6  A    between atoms: C_6  and  C_8 
REMARK    7  A    between atoms: C_7  and  C_9 
REMARK    8  A    between atoms: C_8  and  C_10 
REMARK    9  A    between atoms: C_9  and  C_11 
REMARK   10  A    between atoms: C_10  and  C_12 
REMARK   11  A    between atoms: C_11  and  C_13 
REMARK   12  A    between atoms: C_12  and  C_14 
REMARK   13  A    between atoms: C_13  and  C_15 
REMARK   14  A    between atoms: C_14  and  C_16 
REMARK   15  A    between atoms: C_15  and  C_17 
REMARK   16  A    between atoms: C_16  and  C_18 
REMARK   17  A    between atoms: C_17  and  C_19 
REMARK   18  A    between atoms: C_18  and  C_20 
REMARK   19  A    between atoms: C_20  and  C_22 
ROOT
HETATM    1  O   UNL     1       8.018 -14.590 -14.260  1.00  0.00    -0.776 OA
HETATM    2  H   UNL     1       7.460 -15.366 -14.113  1.00  0.00     0.167 HD
ENDROOT
BRANCH   1   3
HETATM    3  C   UNL     1       8.573 -13.914 -13.232  1.00  0.00     0.139 C 
HETATM    4  O   UNL     1       7.950 -13.010 -12.694  1.00  0.00    -0.650 OA
BRANCH   3   5
HETATM    5  C   UNL     1       9.969 -14.238 -12.770  1.00  0.00     0.110 C 
BRANCH   5   6
HETATM    6  C   UNL     1      10.032 -14.774 -11.328  1.00  0.00     0.010 C 
BRANCH   6   7
HETATM    7  C   UNL     1      11.315 -14.438 -10.540  1.00  0.00     0.001 C 
BRANCH   7   8
HETATM    8  C   UNL     1      11.252 -13.135  -9.718  1.00  0.00     0.000 C 
BRANCH   8   9
HETATM    9  C   UNL     1      10.000 -12.269  -9.962  1.00  0.00     0.000 C 
BRANCH   9  10
HETATM   10  C   UNL     1       8.934 -12.336  -8.852  1.00  0.00     0.000 C 
BRANCH  10  11
HETATM   11  C   UNL     1       9.420 -12.930  -7.515  1.00  0.00     0.000 C 
BRANCH  11  12
HETATM   12  C   UNL     1       9.216 -12.023  -6.284  1.00  0.00     0.000 C 
BRANCH  12  13
HETATM   13  C   UNL     1       9.844 -12.546  -4.977  1.00  0.00     0.000 C 
BRANCH  13  14
HETATM   14  C   UNL     1      11.228 -13.205  -5.135  1.00  0.00     0.000 C 
BRANCH  14  15
HETATM   15  C   UNL     1      11.476 -14.428  -4.229  1.00  0.00     0.000 C 
BRANCH  15  16
HETATM   16  C   UNL     1      11.599 -15.776  -4.969  1.00  0.00     0.000 C 
BRANCH  16  17
HETATM   17  C   UNL     1      10.423 -16.112  -5.909  1.00  0.00     0.000 C 
BRANCH  17  18
HETATM   18  C   UNL     1      10.809 -16.332  -7.386  1.00  0.00     0.000 C 
BRANCH  18  19
HETATM   19  C   UNL     1      10.849 -17.806  -7.836  1.00  0.00     0.000 C 
BRANCH  19  20
HETATM   20  C   UNL     1      12.261 -18.413  -7.959  1.00  0.00     0.000 C 
BRANCH  20  21
HETATM   21  C   UNL     1      12.635 -19.424  -6.856  1.00  0.00    -0.000 C 
BRANCH  21  22
HETATM   22  C   UNL     1      13.562 -18.879  -5.755  1.00  0.00    -0.005 C 
HETATM   23  C   UNL     1      13.016 -19.095  -4.345  1.00  0.00     0.005 C 
ENDBRANCH  21  22
ENDBRANCH  20  21
ENDBRANCH  19  20
ENDBRANCH  18  19
ENDBRANCH  17  18
ENDBRANCH  16  17
ENDBRANCH  15  16
ENDBRANCH  14  15
ENDBRANCH  13  14
ENDBRANCH  12  13
ENDBRANCH  11  12
ENDBRANCH  10  11
ENDBRANCH   9  10
ENDBRANCH   8   9
ENDBRANCH   7   8
ENDBRANCH   6   7
ENDBRANCH   5   6
ENDBRANCH   3   5
ENDBRANCH   1   3
TORSDOF 19
ENDMDL
MODEL 13
REMARK VINA RESULT:      -3.2      6.740     10.429
REMARK  19 active torsions:
REMARK  status: ('A' for Active; 'I' for Inactive)
REMARK    1  A    between atoms: O_1  and  C_22 
REMARK    2  A    between atoms: C_3  and  C_4 
REMARK    3  A    between atoms: C_3  and  C_5 
REMARK    4  A    between atoms: C_4  and  C_6 
REMARK    5  A    between atoms: C_5  and  C_7 
REMARK    6  A    between atoms: C_6  and  C_8 
REMARK    7  A    between atoms: C_7  and  C_9 
REMARK    8  A    between atoms: C_8  and  C_10 
REMARK    9  A    between atoms: C_9  and  C_11 
REMARK   10  A    between atoms: C_10  and  C_12 
REMARK   11  A    between atoms: C_11  and  C_13 
REMARK   12  A    between atoms: C_12  and  C_14 
REMARK   13  A    between atoms: C_13  and  C_15 
REMARK   14  A    between atoms: C_14  and  C_16 
REMARK   15  A    between atoms: C_15  and  C_17 
REMARK   16  A    between atoms: C_16  and  C_18 
REMARK   17  A    between atoms: C_17  and  C_19 
REMARK   18  A    between atoms: C_18  and  C_20 
REMARK   19  A    between atoms: C_20  and  C_22 
ROOT
HETATM    1  O   UNL     1      12.998 -13.134 -10.068  1.00  0.00    -0.776 OA
HETATM    2  H   UNL     1      13.138 -12.269  -9.657  1.00  0.00     0.167 HD
ENDROOT
BRANCH   1   3
HETATM    3  C   UNL     1      11.820 -13.784  -9.960  1.00  0.00     0.139 C 
HETATM    4  O   UNL     1      11.434 -14.162  -8.864  1.00  0.00    -0.650 OA
BRANCH   3   5
HETATM    5  C   UNL     1      10.999 -14.083 -11.186  1.00  0.00     0.110 C 
BRANCH   5   6
HETATM    6  C   UNL     1       9.482 -14.100 -10.923  1.00  0.00     0.010 C 
BRANCH   6   7
HETATM    7  C   UNL     1       8.647 -13.083 -11.729  1.00  0.00     0.001 C 
BRANCH   7   8
HETATM    8  C   UNL     1       8.709 -13.258 -13.260  1.00  0.00     0.000 C 
BRANCH   8   9
HETATM    9  C   UNL     1       9.378 -12.097 -14.023  1.00  0.00     0.000 C 
BRANCH   9  10
HETATM   10  C   UNL     1       9.766 -12.412 -15.480  1.00  0.00     0.000 C 
BRANCH  10  11
HETATM   11  C   UNL     1       8.888 -11.733 -16.551  1.00  0.00     0.000 C 
BRANCH  11  12
HETATM   12  C   UNL     1       8.764 -12.506 -17.879  1.00  0.00     0.000 C 
BRANCH  12  13
HETATM   13  C   UNL     1       9.509 -11.876 -19.073  1.00  0.00     0.000 C 
BRANCH  13  14
HETATM   14  C   UNL     1       9.635 -12.781 -20.315  1.00  0.00     0.000 C 
BRANCH  14  15
HETATM   15  C   UNL     1       9.734 -14.290 -20.015  1.00  0.00     0.000 C 
BRANCH  15  16
HETATM   16  C   UNL     1      11.027 -14.731 -19.299  1.00  0.00     0.000 C 
BRANCH  16  17
HETATM   17  C   UNL     1      10.872 -15.946 -18.362  1.00  0.00     0.000 C 
BRANCH  17  18
HETATM   18  C   UNL     1      10.186 -15.647 -17.014  1.00  0.00     0.000 C 
BRANCH  18  19
HETATM   19  C   UNL     1      10.094 -16.846 -16.049  1.00  0.00     0.000 C 
BRANCH  19  20
HETATM   20  C   UNL     1      10.263 -16.498 -14.557  1.00  0.00     0.000 C 
BRANCH  20  21
HETATM   21  C   UNL     1      11.458 -17.181 -13.859  1.00  0.00    -0.000 C 
BRANCH  21  22
HETATM   22  C   UNL     1      12.467 -17.859 -14.802  1.00  0.00    -0.005 C 
HETATM   23  C   UNL     1      13.119 -19.100 -14.195  1.00  0.00     0.005 C 
ENDBRANCH  21  22
ENDBRANCH  20  21
ENDBRANCH  19  20
ENDBRANCH  18  19
ENDBRANCH  17  18
ENDBRANCH  16  17
ENDBRANCH  15  16
ENDBRANCH  14  15
ENDBRANCH  13  14
ENDBRANCH  12  13
ENDBRANCH  11  12
ENDBRANCH  10  11
ENDBRANCH   9  10
ENDBRANCH   8   9
ENDBRANCH   7   8
ENDBRANCH   6   7
ENDBRANCH   5   6
ENDBRANCH   3   5
ENDBRANCH   1   3
TORSDOF 19
ENDMDL
MODEL 14
REMARK VINA RESULT:      -3.2      2.875      6.126
REMARK  19 active torsions:
REMARK  status: ('A' for Active; 'I' for Inactive)
REMARK    1  A    between atoms: O_1  and  C_22 
REMARK    2  A    between atoms: C_3  and  C_4 
REMARK    3  A    between atoms: C_3  and  C_5 
REMARK    4  A    between atoms: C_4  and  C_6 
REMARK    5  A    between atoms: C_5  and  C_7 
REMARK    6  A    between atoms: C_6  and  C_8 
REMARK    7  A    between atoms: C_7  and  C_9 
REMARK    8  A    between atoms: C_8  and  C_10 
REMARK    9  A    between atoms: C_9  and  C_11 
REMARK   10  A    between atoms: C_10  and  C_12 
REMARK   11  A    between atoms: C_11  and  C_13 
REMARK   12  A    between atoms: C_12  and  C_14 
REMARK   13  A    between atoms: C_13  and  C_15 
REMARK   14  A    between atoms: C_14  and  C_16 
REMARK   15  A    between atoms: C_15  and  C_17 
REMARK   16  A    between atoms: C_16  and  C_18 
REMARK   17  A    between atoms: C_17  and  C_19 
REMARK   18  A    between atoms: C_18  and  C_20 
REMARK   19  A    between atoms: C_20  and  C_22 
ROOT
HETATM    1  O   UNL     1       9.137 -10.924 -10.704  1.00  0.00    -0.776 OA
HETATM    2  H   UNL     1       9.098 -10.726 -11.650  1.00  0.00     0.167 HD
ENDROOT
BRANCH   1   3
HETATM    3  C   UNL     1       9.172 -12.195 -10.250  1.00  0.00     0.139 C 
HETATM    4  O   UNL     1       8.343 -12.570  -9.433  1.00  0.00    -0.650 OA
BRANCH   3   5
HETATM    5  C   UNL     1      10.247 -13.142 -10.713  1.00  0.00     0.110 C 
BRANCH   5   6
HETATM    6  C   UNL     1      10.035 -14.593 -10.243  1.00  0.00     0.010 C 
BRANCH   6   7
HETATM    7  C   UNL     1      11.157 -15.187  -9.366  1.00  0.00     0.001 C 
BRANCH   7   8
HETATM    8  C   UNL     1      11.439 -16.686  -9.598  1.00  0.00     0.000 C 
BRANCH   8   9
HETATM    9  C   UNL     1      10.691 -17.645  -8.650  1.00  0.00     0.000 C 
BRANCH   9  10
HETATM   10  C   UNL     1      10.932 -17.398  -7.149  1.00  0.00     0.000 C 
BRANCH  10  11
HETATM   11  C   UNL     1       9.688 -16.956  -6.352  1.00  0.00     0.000 C 
BRANCH  11  12
HETATM   12  C   UNL     1       8.362 -16.990  -7.139  1.00  0.00     0.000 C 
BRANCH  12  13
HETATM   13  C   UNL     1       7.813 -15.609  -7.552  1.00  0.00     0.000 C 
BRANCH  13  14
HETATM   14  C   UNL     1       6.956 -14.903  -6.483  1.00  0.00     0.000 C 
BRANCH  14  15
HETATM   15  C   UNL     1       7.754 -14.161  -5.392  1.00  0.00     0.000 C 
BRANCH  15  16
HETATM   16  C   UNL     1       8.074 -12.685  -5.706  1.00  0.00     0.000 C 
BRANCH  16  17
HETATM   17  C   UNL     1       9.574 -12.359  -5.848  1.00  0.00     0.000 C 
BRANCH  17  18
HETATM   18  C   UNL     1      10.405 -13.418  -6.600  1.00  0.00     0.000 C 
BRANCH  18  19
HETATM   19  C   UNL     1      11.752 -13.779  -5.942  1.00  0.00     0.000 C 
BRANCH  19  20
HETATM   20  C   UNL     1      11.799 -13.603  -4.411  1.00  0.00     0.000 C 
BRANCH  20  21
HETATM   21  C   UNL     1      11.058 -14.692  -3.607  1.00  0.00    -0.000 C 
BRANCH  21  22
HETATM   22  C   UNL     1      10.690 -14.303  -2.164  1.00  0.00    -0.005 C 
HETATM   23  C   UNL     1       9.402 -13.489  -2.068  1.00  0.00     0.005 C 
ENDBRANCH  21  22
ENDBRANCH  20  21
ENDBRANCH  19  20
ENDBRANCH  18  19
ENDBRANCH  17  18
ENDBRANCH  16  17
ENDBRANCH  15  16
ENDBRANCH  14  15
ENDBRANCH  13  14
ENDBRANCH  12  13
ENDBRANCH  11  12
ENDBRANCH  10  11
ENDBRANCH   9  10
ENDBRANCH   8   9
ENDBRANCH   7   8
ENDBRANCH   6   7
ENDBRANCH   5   6
ENDBRANCH   3   5
ENDBRANCH   1   3
TORSDOF 19
ENDMDL
MODEL 15
REMARK VINA RESULT:      -3.1     10.704     13.252
REMARK  19 active torsions:
REMARK  status: ('A' for Active; 'I' for Inactive)
REMARK    1  A    between atoms: O_1  and  C_22 
REMARK    2  A    between atoms: C_3  and  C_4 
REMARK    3  A    between atoms: C_3  and  C_5 
REMARK    4  A    between atoms: C_4  and  C_6 
REMARK    5  A    between atoms: C_5  and  C_7 
REMARK    6  A    between atoms: C_6  and  C_8 
REMARK    7  A    between atoms: C_7  and  C_9 
REMARK    8  A    between atoms: C_8  and  C_10 
REMARK    9  A    between atoms: C_9  and  C_11 
REMARK   10  A    between atoms: C_10  and  C_12 
REMARK   11  A    between atoms: C_11  and  C_13 
REMARK   12  A    between atoms: C_12  and  C_14 
REMARK   13  A    between atoms: C_13  and  C_15 
REMARK   14  A    between atoms: C_14  and  C_16 
REMARK   15  A    between atoms: C_15  and  C_17 
REMARK   16  A    between atoms: C_16  and  C_18 
REMARK   17  A    between atoms: C_17  and  C_19 
REMARK   18  A    between atoms: C_18  and  C_20 
REMARK   19  A    between atoms: C_20  and  C_22 
ROOT
HETATM    1  O   UNL     1      16.683 -25.857  -9.312  1.00  0.00    -0.776 OA
HETATM    2  H   UNL     1      16.959 -25.356 -10.092  1.00  0.00     0.167 HD
ENDROOT
BRANCH   1   3
HETATM    3  C   UNL     1      15.556 -25.548  -8.636  1.00  0.00     0.139 C 
HETATM    4  O   UNL     1      15.450 -25.862  -7.459  1.00  0.00    -0.650 OA
BRANCH   3   5
HETATM    5  C   UNL     1      14.415 -24.856  -9.332  1.00  0.00     0.110 C 
BRANCH   5   6
HETATM    6  C   UNL     1      13.328 -25.820  -9.842  1.00  0.00     0.010 C 
BRANCH   6   7
HETATM    7  C   UNL     1      13.399 -26.184 -11.339  1.00  0.00     0.001 C 
BRANCH   7   8
HETATM    8  C   UNL     1      13.960 -25.075 -12.253  1.00  0.00     0.000 C 
BRANCH   8   9
HETATM    9  C   UNL     1      14.817 -25.574 -13.434  1.00  0.00     0.000 C 
BRANCH   9  10
HETATM   10  C   UNL     1      14.350 -25.099 -14.824  1.00  0.00     0.000 C 
BRANCH  10  11
HETATM   11  C   UNL     1      13.844 -26.215 -15.759  1.00  0.00     0.000 C 
BRANCH  11  12
HETATM   12  C   UNL     1      12.310 -26.309 -15.893  1.00  0.00     0.000 C 
BRANCH  12  13
HETATM   13  C   UNL     1      11.574 -26.789 -14.626  1.00  0.00     0.000 C 
BRANCH  13  14
HETATM   14  C   UNL     1      10.716 -25.717 -13.925  1.00  0.00     0.000 C 
BRANCH  14  15
HETATM   15  C   UNL     1      10.792 -24.309 -14.549  1.00  0.00     0.000 C 
BRANCH  15  16
HETATM   16  C   UNL     1      10.700 -23.143 -13.545  1.00  0.00     0.000 C 
BRANCH  16  17
HETATM   17  C   UNL     1      10.360 -23.554 -12.097  1.00  0.00     0.000 C 
BRANCH  17  18
HETATM   18  C   UNL     1      11.294 -22.973 -11.017  1.00  0.00     0.000 C 
BRANCH  18  19
HETATM   19  C   UNL     1      12.226 -21.844 -11.499  1.00  0.00     0.000 C 
BRANCH  19  20
HETATM   20  C   UNL     1      12.030 -20.488 -10.792  1.00  0.00     0.000 C 
BRANCH  20  21
HETATM   21  C   UNL     1      13.109 -19.430 -11.098  1.00  0.00    -0.000 C 
BRANCH  21  22
HETATM   22  C   UNL     1      13.242 -18.308 -10.053  1.00  0.00    -0.005 C 
HETATM   23  C   UNL     1      11.956 -17.505  -9.864  1.00  0.00     0.005 C 
ENDBRANCH  21  22
ENDBRANCH  20  21
ENDBRANCH  19  20
ENDBRANCH  18  19
ENDBRANCH  17  18
ENDBRANCH  16  17
ENDBRANCH  15  16
ENDBRANCH  14  15
ENDBRANCH  13  14
ENDBRANCH  12  13
ENDBRANCH  11  12
ENDBRANCH  10  11
ENDBRANCH   9  10
ENDBRANCH   8   9
ENDBRANCH   7   8
ENDBRANCH   6   7
ENDBRANCH   5   6
ENDBRANCH   3   5
ENDBRANCH   1   3
TORSDOF 19
ENDMDL
MODEL 16
REMARK VINA RESULT:      -3.1     28.904     31.463
REMARK  19 active torsions:
REMARK  status: ('A' for Active; 'I' for Inactive)
REMARK    1  A    between atoms: O_1  and  C_22 
REMARK    2  A    between atoms: C_3  and  C_4 
REMARK    3  A    between atoms: C_3  and  C_5 
REMARK    4  A    between atoms: C_4  and  C_6 
REMARK    5  A    between atoms: C_5  and  C_7 
REMARK    6  A    between atoms: C_6  and  C_8 
REMARK    7  A    between atoms: C_7  and  C_9 
REMARK    8  A    between atoms: C_8  and  C_10 
REMARK    9  A    between atoms: C_9  and  C_11 
REMARK   10  A    between atoms: C_10  and  C_12 
REMARK   11  A    between atoms: C_11  and  C_13 
REMARK   12  A    between atoms: C_12  and  C_14 
REMARK   13  A    between atoms: C_13  and  C_15 
REMARK   14  A    between atoms: C_14  and  C_16 
REMARK   15  A    between atoms: C_15  and  C_17 
REMARK   16  A    between atoms: C_16  and  C_18 
REMARK   17  A    between atoms: C_17  and  C_19 
REMARK   18  A    between atoms: C_18  and  C_20 
REMARK   19  A    between atoms: C_20  and  C_22 
ROOT
HETATM    1  O   UNL     1      41.116  -9.795 -19.072  1.00  0.00    -0.776 OA
HETATM    2  H   UNL     1      41.865  -9.812 -19.684  1.00  0.00     0.167 HD
ENDROOT
BRANCH   1   3
HETATM    3  C   UNL     1      40.161 -10.749 -19.100  1.00  0.00     0.139 C 
HETATM    4  O   UNL     1      40.219 -11.641 -19.933  1.00  0.00    -0.650 OA
BRANCH   3   5
HETATM    5  C   UNL     1      39.003 -10.698 -18.138  1.00  0.00     0.110 C 
BRANCH   5   6
HETATM    6  C   UNL     1      39.190 -11.594 -16.900  1.00  0.00     0.010 C 
BRANCH   6   7
HETATM    7  C   UNL     1      40.430 -11.295 -16.033  1.00  0.00     0.001 C 
BRANCH   7   8
HETATM    8  C   UNL     1      40.296 -11.690 -14.548  1.00  0.00     0.000 C 
BRANCH   8   9
HETATM    9  C   UNL     1      39.924 -10.535 -13.596  1.00  0.00     0.000 C 
BRANCH   9  10
HETATM   10  C   UNL     1      39.070 -10.942 -12.380  1.00  0.00     0.000 C 
BRANCH  10  11
HETATM   11  C   UNL     1      39.372 -12.341 -11.808  1.00  0.00     0.000 C 
BRANCH  11  12
HETATM   12  C   UNL     1      40.036 -12.347 -10.416  1.00  0.00     0.000 C 
BRANCH  12  13
HETATM   13  C   UNL     1      40.358 -10.954  -9.840  1.00  0.00     0.000 C 
BRANCH  13  14
HETATM   14  C   UNL     1      39.979 -10.757  -8.358  1.00  0.00     0.000 C 
BRANCH  14  15
HETATM   15  C   UNL     1      39.464 -12.023  -7.643  1.00  0.00     0.000 C 
BRANCH  15  16
HETATM   16  C   UNL     1      37.965 -12.003  -7.280  1.00  0.00     0.000 C 
BRANCH  16  17
HETATM   17  C   UNL     1      37.413 -10.625  -6.863  1.00  0.00     0.000 C 
BRANCH  17  18
HETATM   18  C   UNL     1      36.055 -10.659  -6.134  1.00  0.00     0.000 C 
BRANCH  18  19
HETATM   19  C   UNL     1      34.971  -9.740  -6.731  1.00  0.00     0.000 C 
BRANCH  19  20
HETATM   20  C   UNL     1      34.477 -10.140  -8.135  1.00  0.00     0.000 C 
BRANCH  20  21
HETATM   21  C   UNL     1      35.018  -9.270  -9.289  1.00  0.00    -0.000 C 
BRANCH  21  22
HETATM   22  C   UNL     1      36.198  -9.877 -10.069  1.00  0.00    -0.005 C 
HETATM   23  C   UNL     1      35.944 -11.313 -10.525  1.00  0.00     0.005 C 
ENDBRANCH  21  22
ENDBRANCH  20  21
ENDBRANCH  19  20
ENDBRANCH  18  19
ENDBRANCH  17  18
ENDBRANCH  16  17
ENDBRANCH  15  16
ENDBRANCH  14  15
ENDBRANCH  13  14
ENDBRANCH  12  13
ENDBRANCH  11  12
ENDBRANCH  10  11
ENDBRANCH   9  10
ENDBRANCH   8   9
ENDBRANCH   7   8
ENDBRANCH   6   7
ENDBRANCH   5   6
ENDBRANCH   3   5
ENDBRANCH   1   3
TORSDOF 19
ENDMDL
MODEL 17
REMARK VINA RESULT:      -3.1      3.639      6.718
REMARK  19 active torsions:
REMARK  status: ('A' for Active; 'I' for Inactive)
REMARK    1  A    between atoms: O_1  and  C_22 
REMARK    2  A    between atoms: C_3  and  C_4 
REMARK    3  A    between atoms: C_3  and  C_5 
REMARK    4  A    between atoms: C_4  and  C_6 
REMARK    5  A    between atoms: C_5  and  C_7 
REMARK    6  A    between atoms: C_6  and  C_8 
REMARK    7  A    between atoms: C_7  and  C_9 
REMARK    8  A    between atoms: C_8  and  C_10 
REMARK    9  A    between atoms: C_9  and  C_11 
REMARK   10  A    between atoms: C_10  and  C_12 
REMARK   11  A    between atoms: C_11  and  C_13 
REMARK   12  A    between atoms: C_12  and  C_14 
REMARK   13  A    between atoms: C_13  and  C_15 
REMARK   14  A    between atoms: C_14  and  C_16 
REMARK   15  A    between atoms: C_15  and  C_17 
REMARK   16  A    between atoms: C_16  and  C_18 
REMARK   17  A    between atoms: C_17  and  C_19 
REMARK   18  A    between atoms: C_18  and  C_20 
REMARK   19  A    between atoms: C_20  and  C_22 
ROOT
HETATM    1  O   UNL     1       9.157 -14.394 -14.437  1.00  0.00    -0.776 OA
HETATM    2  H   UNL     1       9.076 -15.318 -14.161  1.00  0.00     0.167 HD
ENDROOT
BRANCH   1   3
HETATM    3  C   UNL     1       9.843 -13.495 -13.701  1.00  0.00     0.139 C 
HETATM    4  O   UNL     1      11.062 -13.561 -13.645  1.00  0.00    -0.650 OA
BRANCH   3   5
HETATM    5  C   UNL     1       9.115 -12.437 -12.915  1.00  0.00     0.110 C 
BRANCH   5   6
HETATM    6  C   UNL     1       8.073 -13.004 -11.934  1.00  0.00     0.010 C 
BRANCH   6   7
HETATM    7  C   UNL     1       8.333 -12.726 -10.439  1.00  0.00     0.001 C 
BRANCH   7   8
HETATM    8  C   UNL     1       9.778 -12.309 -10.097  1.00  0.00     0.000 C 
BRANCH   8   9
HETATM    9  C   UNL     1      10.346 -12.925  -8.802  1.00  0.00     0.000 C 
BRANCH   9  10
HETATM   10  C   UNL     1      11.637 -13.747  -8.982  1.00  0.00     0.000 C 
BRANCH  10  11
HETATM   11  C   UNL     1      11.817 -14.382 -10.375  1.00  0.00     0.000 C 
BRANCH  11  12
HETATM   12  C   UNL     1      11.389 -15.860 -10.480  1.00  0.00     0.000 C 
BRANCH  12  13
HETATM   13  C   UNL     1       9.973 -16.090 -11.044  1.00  0.00     0.000 C 
BRANCH  13  14
HETATM   14  C   UNL     1       9.034 -16.910 -10.136  1.00  0.00     0.000 C 
BRANCH  14  15
HETATM   15  C   UNL     1       7.674 -16.247  -9.836  1.00  0.00     0.000 C 
BRANCH  15  16
HETATM   16  C   UNL     1       7.498 -15.745  -8.388  1.00  0.00     0.000 C 
BRANCH  16  17
HETATM   17  C   UNL     1       8.798 -15.673  -7.561  1.00  0.00     0.000 C 
BRANCH  17  18
HETATM   18  C   UNL     1       8.599 -15.665  -6.032  1.00  0.00     0.000 C 
BRANCH  18  19
HETATM   19  C   UNL     1       9.623 -16.498  -5.236  1.00  0.00     0.000 C 
BRANCH  19  20
HETATM   20  C   UNL     1      10.582 -15.680  -4.348  1.00  0.00     0.000 C 
BRANCH  20  21
HETATM   21  C   UNL     1      11.872 -15.203  -5.047  1.00  0.00    -0.000 C 
BRANCH  21  22
HETATM   22  C   UNL     1      11.909 -13.707  -5.404  1.00  0.00    -0.005 C 
HETATM   23  C   UNL     1      10.762 -12.910  -4.785  1.00  0.00     0.005 C 
ENDBRANCH  21  22
ENDBRANCH  20  21
ENDBRANCH  19  20
ENDBRANCH  18  19
ENDBRANCH  17  18
ENDBRANCH  16  17
ENDBRANCH  15  16
ENDBRANCH  14  15
ENDBRANCH  13  14
ENDBRANCH  12  13
ENDBRANCH  11  12
ENDBRANCH  10  11
ENDBRANCH   9  10
ENDBRANCH   8   9
ENDBRANCH   7   8
ENDBRANCH   6   7
ENDBRANCH   5   6
ENDBRANCH   3   5
ENDBRANCH   1   3
TORSDOF 19
ENDMDL
MODEL 18
REMARK VINA RESULT:      -3.1      3.764      6.530
REMARK  19 active torsions:
REMARK  status: ('A' for Active; 'I' for Inactive)
REMARK    1  A    between atoms: O_1  and  C_22 
REMARK    2  A    between atoms: C_3  and  C_4 
REMARK    3  A    between atoms: C_3  and  C_5 
REMARK    4  A    between atoms: C_4  and  C_6 
REMARK    5  A    between atoms: C_5  and  C_7 
REMARK    6  A    between atoms: C_6  and  C_8 
REMARK    7  A    between atoms: C_7  and  C_9 
REMARK    8  A    between atoms: C_8  and  C_10 
REMARK    9  A    between atoms: C_9  and  C_11 
REMARK   10  A    between atoms: C_10  and  C_12 
REMARK   11  A    between atoms: C_11  and  C_13 
REMARK   12  A    between atoms: C_12  and  C_14 
REMARK   13  A    between atoms: C_13  and  C_15 
REMARK   14  A    between atoms: C_14  and  C_16 
REMARK   15  A    between atoms: C_15  and  C_17 
REMARK   16  A    between atoms: C_16  and  C_18 
REMARK   17  A    between atoms: C_17  and  C_19 
REMARK   18  A    between atoms: C_18  and  C_20 
REMARK   19  A    between atoms: C_20  and  C_22 
ROOT
HETATM    1  O   UNL     1       7.837 -13.124  -3.611  1.00  0.00    -0.776 OA
HETATM    2  H   UNL     1       7.191 -13.633  -4.121  1.00  0.00     0.167 HD
ENDROOT
BRANCH   1   3
HETATM    3  C   UNL     1       9.005 -12.721  -4.153  1.00  0.00     0.139 C 
HETATM    4  O   UNL     1       9.051 -11.676  -4.785  1.00  0.00    -0.650 OA
BRANCH   3   5
HETATM    5  C   UNL     1      10.242 -13.569  -4.019  1.00  0.00     0.110 C 
BRANCH   5   6
HETATM    6  C   UNL     1      11.370 -13.172  -4.989  1.00  0.00     0.010 C 
BRANCH   6   7
HETATM    7  C   UNL     1      11.755 -14.230  -6.044  1.00  0.00     0.001 C 
BRANCH   7   8
HETATM    8  C   UNL     1      11.322 -13.899  -7.486  1.00  0.00     0.000 C 
BRANCH   8   9
HETATM    9  C   UNL     1       9.937 -14.444  -7.893  1.00  0.00     0.000 C 
BRANCH   9  10
HETATM   10  C   UNL     1       8.827 -13.382  -8.012  1.00  0.00     0.000 C 
BRANCH  10  11
HETATM   11  C   UNL     1       9.314 -11.967  -8.384  1.00  0.00     0.000 C 
BRANCH  11  12
HETATM   12  C   UNL     1       9.752 -11.792  -9.852  1.00  0.00     0.000 C 
BRANCH  12  13
HETATM   13  C   UNL     1       8.601 -11.757 -10.876  1.00  0.00     0.000 C 
BRANCH  13  14
HETATM   14  C   UNL     1       8.433 -13.041 -11.713  1.00  0.00     0.000 C 
BRANCH  14  15
HETATM   15  C   UNL     1       9.345 -13.135 -12.953  1.00  0.00     0.000 C 
BRANCH  15  16
HETATM   16  C   UNL     1      10.496 -14.155 -12.840  1.00  0.00     0.000 C 
BRANCH  16  17
HETATM   17  C   UNL     1      10.617 -14.853 -11.470  1.00  0.00     0.000 C 
BRANCH  17  18
HETATM   18  C   UNL     1      10.263 -16.354 -11.469  1.00  0.00     0.000 C 
BRANCH  18  19
HETATM   19  C   UNL     1      10.207 -17.012 -12.862  1.00  0.00     0.000 C 
BRANCH  19  20
HETATM   20  C   UNL     1      10.816 -18.426 -12.941  1.00  0.00     0.000 C 
BRANCH  20  21
HETATM   21  C   UNL     1      12.276 -18.535 -12.456  1.00  0.00    -0.000 C 
BRANCH  21  22
HETATM   22  C   UNL     1      12.468 -19.261 -11.112  1.00  0.00    -0.005 C 
HETATM   23  C   UNL     1      13.801 -18.942 -10.439  1.00  0.00     0.005 C 
ENDBRANCH  21  22
ENDBRANCH  20  21
ENDBRANCH  19  20
ENDBRANCH  18  19
ENDBRANCH  17  18
ENDBRANCH  16  17
ENDBRANCH  15  16
ENDBRANCH  14  15
ENDBRANCH  13  14
ENDBRANCH  12  13
ENDBRANCH  11  12
ENDBRANCH  10  11
ENDBRANCH   9  10
ENDBRANCH   8   9
ENDBRANCH   7   8
ENDBRANCH   6   7
ENDBRANCH   5   6
ENDBRANCH   3   5
ENDBRANCH   1   3
TORSDOF 19
ENDMDL
MODEL 19
REMARK VINA RESULT:      -3.1      9.568     12.039
REMARK  19 active torsions:
REMARK  status: ('A' for Active; 'I' for Inactive)
REMARK    1  A    between atoms: O_1  and  C_22 
REMARK    2  A    between atoms: C_3  and  C_4 
REMARK    3  A    between atoms: C_3  and  C_5 
REMARK    4  A    between atoms: C_4  and  C_6 
REMARK    5  A    between atoms: C_5  and  C_7 
REMARK    6  A    between atoms: C_6  and  C_8 
REMARK    7  A    between atoms: C_7  and  C_9 
REMARK    8  A    between atoms: C_8  and  C_10 
REMARK    9  A    between atoms: C_9  and  C_11 
REMARK   10  A    between atoms: C_10  and  C_12 
REMARK   11  A    between atoms: C_11  and  C_13 
REMARK   12  A    between atoms: C_12  and  C_14 
REMARK   13  A    between atoms: C_13  and  C_15 
REMARK   14  A    between atoms: C_14  and  C_16 
REMARK   15  A    between atoms: C_15  and  C_17 
REMARK   16  A    between atoms: C_16  and  C_18 
REMARK   17  A    between atoms: C_17  and  C_19 
REMARK   18  A    between atoms: C_18  and  C_20 
REMARK   19  A    between atoms: C_20  and  C_22 
ROOT
HETATM    1  O   UNL     1      14.805 -23.715 -13.788  1.00  0.00    -0.776 OA
HETATM    2  H   UNL     1      14.046 -23.145 -13.602  1.00  0.00     0.167 HD
ENDROOT
BRANCH   1   3
HETATM    3  C   UNL     1      14.889 -24.964 -13.283  1.00  0.00     0.139 C 
HETATM    4  O   UNL     1      15.975 -25.521 -13.218  1.00  0.00    -0.650 OA
BRANCH   3   5
HETATM    5  C   UNL     1      13.649 -25.692 -12.836  1.00  0.00     0.110 C 
BRANCH   5   6
HETATM    6  C   UNL     1      13.510 -25.793 -11.305  1.00  0.00     0.010 C 
BRANCH   6   7
HETATM    7  C   UNL     1      13.623 -24.464 -10.530  1.00  0.00     0.001 C 
BRANCH   7   8
HETATM    8  C   UNL     1      14.459 -24.535  -9.236  1.00  0.00     0.000 C 
BRANCH   8   9
HETATM    9  C   UNL     1      14.737 -25.960  -8.716  1.00  0.00     0.000 C 
BRANCH   9  10
HETATM   10  C   UNL     1      14.169 -26.267  -7.317  1.00  0.00     0.000 C 
BRANCH  10  11
HETATM   11  C   UNL     1      12.733 -26.830  -7.305  1.00  0.00     0.000 C 
BRANCH  11  12
HETATM   12  C   UNL     1      11.639 -25.818  -6.912  1.00  0.00     0.000 C 
BRANCH  12  13
HETATM   13  C   UNL     1      10.847 -25.221  -8.093  1.00  0.00     0.000 C 
BRANCH  13  14
HETATM   14  C   UNL     1      10.862 -23.682  -8.178  1.00  0.00     0.000 C 
BRANCH  14  15
HETATM   15  C   UNL     1      11.785 -22.982  -7.160  1.00  0.00     0.000 C 
BRANCH  15  16
HETATM   16  C   UNL     1      12.511 -21.729  -7.691  1.00  0.00     0.000 C 
BRANCH  16  17
HETATM   17  C   UNL     1      11.624 -20.477  -7.843  1.00  0.00     0.000 C 
BRANCH  17  18
HETATM   18  C   UNL     1      12.308 -19.143  -7.480  1.00  0.00     0.000 C 
BRANCH  18  19
HETATM   19  C   UNL     1      13.387 -19.242  -6.384  1.00  0.00     0.000 C 
BRANCH  19  20
HETATM   20  C   UNL     1      12.863 -19.124  -4.939  1.00  0.00     0.000 C 
BRANCH  20  21
HETATM   21  C   UNL     1      13.558 -20.047  -3.916  1.00  0.00    -0.000 C 
BRANCH  21  22
HETATM   22  C   UNL     1      13.156 -21.530  -3.993  1.00  0.00    -0.005 C 
HETATM   23  C   UNL     1      11.920 -21.864  -3.159  1.00  0.00     0.005 C 
ENDBRANCH  21  22
ENDBRANCH  20  21
ENDBRANCH  19  20
ENDBRANCH  18  19
ENDBRANCH  17  18
ENDBRANCH  16  17
ENDBRANCH  15  16
ENDBRANCH  14  15
ENDBRANCH  13  14
ENDBRANCH  12  13
ENDBRANCH  11  12
ENDBRANCH  10  11
ENDBRANCH   9  10
ENDBRANCH   8   9
ENDBRANCH   7   8
ENDBRANCH   6   7
ENDBRANCH   5   6
ENDBRANCH   3   5
ENDBRANCH   1   3
TORSDOF 19
ENDMDL
MODEL 20
REMARK VINA RESULT:      -3.1      8.724     12.694
REMARK  19 active torsions:
REMARK  status: ('A' for Active; 'I' for Inactive)
REMARK    1  A    between atoms: O_1  and  C_22 
REMARK    2  A    between atoms: C_3  and  C_4 
REMARK    3  A    between atoms: C_3  and  C_5 
REMARK    4  A    between atoms: C_4  and  C_6 
REMARK    5  A    between atoms: C_5  and  C_7 
REMARK    6  A    between atoms: C_6  and  C_8 
REMARK    7  A    between atoms: C_7  and  C_9 
REMARK    8  A    between atoms: C_8  and  C_10 
REMARK    9  A    between atoms: C_9  and  C_11 
REMARK   10  A    between atoms: C_10  and  C_12 
REMARK   11  A    between atoms: C_11  and  C_13 
REMARK   12  A    between atoms: C_12  and  C_14 
REMARK   13  A    between atoms: C_13  and  C_15 
REMARK   14  A    between atoms: C_14  and  C_16 
REMARK   15  A    between atoms: C_15  and  C_17 
REMARK   16  A    between atoms: C_16  and  C_18 
REMARK   17  A    between atoms: C_17  and  C_19 
REMARK   18  A    between atoms: C_18  and  C_20 
REMARK   19  A    between atoms: C_20  and  C_22 
ROOT
HETATM    1  O   UNL     1       9.517 -12.721 -12.335  1.00  0.00    -0.776 OA
HETATM    2  H   UNL     1       9.855 -13.434 -11.775  1.00  0.00     0.167 HD
ENDROOT
BRANCH   1   3
HETATM    3  C   UNL     1       9.001 -12.969 -13.558  1.00  0.00     0.139 C 
HETATM    4  O   UNL     1       7.809 -13.214 -13.675  1.00  0.00    -0.650 OA
BRANCH   3   5
HETATM    5  C   UNL     1       9.891 -12.985 -14.772  1.00  0.00     0.110 C 
BRANCH   5   6
HETATM    6  C   UNL     1      10.815 -14.215 -14.844  1.00  0.00     0.010 C 
BRANCH   6   7
HETATM    7  C   UNL     1      10.584 -15.163 -16.038  1.00  0.00     0.001 C 
BRANCH   7   8
HETATM    8  C   UNL     1      10.775 -14.518 -17.426  1.00  0.00     0.000 C 
BRANCH   8   9
HETATM    9  C   UNL     1       9.597 -14.713 -18.404  1.00  0.00     0.000 C 
BRANCH   9  10
HETATM   10  C   UNL     1       8.617 -13.527 -18.489  1.00  0.00     0.000 C 
BRANCH  10  11
HETATM   11  C   UNL     1       9.274 -12.133 -18.441  1.00  0.00     0.000 C 
BRANCH  11  12
HETATM   12  C   UNL     1       9.429 -11.436 -19.808  1.00  0.00     0.000 C 
BRANCH  12  13
HETATM   13  C   UNL     1       8.370 -11.820 -20.860  1.00  0.00     0.000 C 
BRANCH  13  14
HETATM   14  C   UNL     1       8.895 -12.666 -22.036  1.00  0.00     0.000 C 
BRANCH  14  15
HETATM   15  C   UNL     1       8.014 -13.873 -22.417  1.00  0.00     0.000 C 
BRANCH  15  16
HETATM   16  C   UNL     1       8.739 -15.234 -22.427  1.00  0.00     0.000 C 
BRANCH  16  17
HETATM   17  C   UNL     1       8.287 -16.222 -21.333  1.00  0.00     0.000 C 
BRANCH  17  18
HETATM   18  C   UNL     1       6.806 -16.106 -20.919  1.00  0.00     0.000 C 
BRANCH  18  19
HETATM   19  C   UNL     1       6.412 -16.917 -19.669  1.00  0.00     0.000 C 
BRANCH  19  20
HETATM   20  C   UNL     1       7.535 -17.791 -19.077  1.00  0.00     0.000 C 
BRANCH  20  21
HETATM   21  C   UNL     1       7.764 -17.621 -17.561  1.00  0.00    -0.000 C 
BRANCH  21  22
HETATM   22  C   UNL     1       6.565 -17.060 -16.776  1.00  0.00    -0.005 C 
HETATM   23  C   UNL     1       6.893 -15.781 -16.008  1.00  0.00     0.005 C 
ENDBRANCH  21  22
ENDBRANCH  20  21
ENDBRANCH  19  20
ENDBRANCH  18  19
ENDBRANCH  17  18
ENDBRANCH  16  17
ENDBRANCH  15  16
ENDBRANCH  14  15
ENDBRANCH  13  14
ENDBRANCH  12  13
ENDBRANCH  11  12
ENDBRANCH  10  11
ENDBRANCH   9  10
ENDBRANCH   8   9
ENDBRANCH   7   8
ENDBRANCH   6   7
ENDBRANCH   5   6
ENDBRANCH   3   5
ENDBRANCH   1   3
TORSDOF 19
ENDMDL
