MODEL 1
REMARK VINA RESULT:      -5.9      0.000      0.000
REMARK  2 active torsions:
REMARK  status: ('A' for Active; 'I' for Inactive)
REMARK    1  A    between atoms: N_3  and  C_15 
REMARK    2  A    between atoms: C_5  and  C_7 
ROOT
HETATM    1  S   UNL     1       9.469 -11.716 -14.793  1.00  0.00    -0.069 SA
HETATM    2  N   UNL     1       8.398 -14.004 -14.597  1.00  0.00    -0.344 N 
HETATM    3  C   UNL     1       8.449 -13.685 -15.931  1.00  0.00     0.052 A 
HETATM    4  C   UNL     1       8.958 -13.014 -13.822  1.00  0.00     0.087 A 
HETATM    5  C   UNL     1       9.012 -12.452 -16.218  1.00  0.00     0.034 A 
HETATM    6  C   UNL     1       7.973 -14.483 -16.986  1.00  0.00     0.031 A 
HETATM    7  C   UNL     1       9.136 -11.963 -17.515  1.00  0.00     0.028 A 
HETATM    8  C   UNL     1       7.748 -15.238 -14.133  1.00  0.00     0.157 C 
HETATM    9  C   UNL     1       8.668 -12.759 -18.578  1.00  0.00    -0.061 A 
HETATM   10  C   UNL     1       8.087 -14.016 -18.305  1.00  0.00     0.009 A 
HETATM   11  C   UNL     1       8.776 -12.283 -19.995  1.00  0.00     0.048 C 
ENDROOT
BRANCH   4  12
HETATM   12  C   UNL     1       9.167 -13.000 -12.338  1.00  0.00    -0.002 A 
HETATM   13  C   UNL     1       8.220 -12.481 -11.437  1.00  0.00     0.016 A 
HETATM   14  C   UNL     1       8.447 -12.509 -10.057  1.00  0.00     0.030 A 
HETATM   15  C   UNL     1       9.626 -13.065  -9.519  1.00  0.00     0.029 A 
HETATM   16  C   UNL     1      10.563 -13.604 -10.426  1.00  0.00     0.030 A 
HETATM   17  C   UNL     1      10.332 -13.579 -11.804  1.00  0.00     0.016 A 
BRANCH  15  18
HETATM   18  N   UNL     1       9.861 -13.093  -8.095  1.00  0.00    -0.390 N 
HETATM   19  C   UNL     1       9.040 -12.298  -7.192  1.00  0.00     0.149 C 
HETATM   20  C   UNL     1      10.925 -13.915  -7.534  1.00  0.00     0.149 C 
ENDBRANCH  15  18
ENDBRANCH   4  12
TORSDOF 2
ENDMDL
MODEL 2
REMARK VINA RESULT:      -5.8      0.135      1.079
REMARK  2 active torsions:
REMARK  status: ('A' for Active; 'I' for Inactive)
REMARK    1  A    between atoms: N_3  and  C_15 
REMARK    2  A    between atoms: C_5  and  C_7 
ROOT
HETATM    1  S   UNL     1       9.483 -11.819 -14.825  1.00  0.00    -0.069 SA
HETATM    2  N   UNL     1       8.388 -14.097 -14.655  1.00  0.00    -0.344 N 
HETATM    3  C   UNL     1       8.426 -13.756 -15.984  1.00  0.00     0.052 A 
HETATM    4  C   UNL     1       8.969 -13.127 -13.870  1.00  0.00     0.087 A 
HETATM    5  C   UNL     1       9.000 -12.525 -16.257  1.00  0.00     0.034 A 
HETATM    6  C   UNL     1       7.928 -14.530 -17.046  1.00  0.00     0.031 A 
HETATM    7  C   UNL     1       9.114 -12.015 -17.547  1.00  0.00     0.028 A 
HETATM    8  C   UNL     1       7.728 -15.331 -14.204  1.00  0.00     0.157 C 
HETATM    9  C   UNL     1       8.623 -12.786 -18.617  1.00  0.00    -0.061 A 
HETATM   10  C   UNL     1       8.031 -14.041 -18.359  1.00  0.00     0.009 A 
HETATM   11  C   UNL     1       8.720 -12.288 -20.027  1.00  0.00     0.048 C 
ENDROOT
BRANCH   4  12
HETATM   12  C   UNL     1       9.196 -13.141 -12.389  1.00  0.00    -0.002 A 
HETATM   13  C   UNL     1      10.273 -13.816 -11.786  1.00  0.00     0.016 A 
HETATM   14  C   UNL     1      10.460 -13.784 -10.401  1.00  0.00     0.030 A 
HETATM   15  C   UNL     1       9.583 -13.068  -9.560  1.00  0.00     0.029 A 
HETATM   16  C   UNL     1       8.517 -12.374 -10.171  1.00  0.00     0.030 A 
HETATM   17  C   UNL     1       8.336 -12.404 -11.556  1.00  0.00     0.016 A 
BRANCH  15  18
HETATM   18  N   UNL     1       9.775 -13.036  -8.129  1.00  0.00    -0.390 N 
HETATM   19  C   UNL     1       8.969 -12.157  -7.292  1.00  0.00     0.149 C 
HETATM   20  C   UNL     1      10.778 -13.879  -7.495  1.00  0.00     0.149 C 
ENDBRANCH  15  18
ENDBRANCH   4  12
TORSDOF 2
ENDMDL
MODEL 3
REMARK VINA RESULT:      -5.8      1.636      7.851
REMARK  2 active torsions:
REMARK  status: ('A' for Active; 'I' for Inactive)
REMARK    1  A    between atoms: N_3  and  C_15 
REMARK    2  A    between atoms: C_5  and  C_7 
ROOT
HETATM    1  S   UNL     1       8.316 -12.093 -10.999  1.00  0.00    -0.069 SA
HETATM    2  N   UNL     1      10.369 -13.546 -11.312  1.00  0.00    -0.344 N 
HETATM    3  C   UNL     1      10.174 -13.393  -9.963  1.00  0.00     0.052 A 
HETATM    4  C   UNL     1       9.393 -12.900 -12.038  1.00  0.00     0.087 A 
HETATM    5  C   UNL     1       9.080 -12.617  -9.613  1.00  0.00     0.034 A 
HETATM    6  C   UNL     1      10.982 -13.934  -8.948  1.00  0.00     0.031 A 
HETATM    7  C   UNL     1       8.737 -12.350  -8.290  1.00  0.00     0.028 A 
HETATM    8  C   UNL     1      11.538 -14.266 -11.836  1.00  0.00     0.157 C 
HETATM    9  C   UNL     1       9.538 -12.893  -7.268  1.00  0.00    -0.061 A 
HETATM   10  C   UNL     1      10.659 -13.682  -7.605  1.00  0.00     0.009 A 
HETATM   11  C   UNL     1       9.216 -12.639  -5.827  1.00  0.00     0.048 C 
ENDROOT
BRANCH   4  12
HETATM   12  C   UNL     1       9.199 -12.878 -13.523  1.00  0.00    -0.002 A 
HETATM   13  C   UNL     1       9.534 -11.771 -14.323  1.00  0.00     0.016 A 
HETATM   14  C   UNL     1       9.357 -11.802 -15.710  1.00  0.00     0.030 A 
HETATM   15  C   UNL     1       8.846 -12.946 -16.357  1.00  0.00     0.029 A 
HETATM   16  C   UNL     1       8.532 -14.063 -15.554  1.00  0.00     0.030 A 
HETATM   17  C   UNL     1       8.715 -14.030 -14.169  1.00  0.00     0.016 A 
BRANCH  15  18
HETATM   18  N   UNL     1       8.661 -12.979 -17.789  1.00  0.00    -0.390 N 
HETATM   19  C   UNL     1       9.152 -11.891 -18.625  1.00  0.00     0.149 C 
HETATM   20  C   UNL     1       7.980 -14.098 -18.425  1.00  0.00     0.149 C 
ENDBRANCH  15  18
ENDBRANCH   4  12
TORSDOF 2
ENDMDL
MODEL 4
REMARK VINA RESULT:      -5.7      1.941      7.949
REMARK  2 active torsions:
REMARK  status: ('A' for Active; 'I' for Inactive)
REMARK    1  A    between atoms: N_3  and  C_15 
REMARK    2  A    between atoms: C_5  and  C_7 
ROOT
HETATM    1  S   UNL     1      11.367 -13.986 -10.862  1.00  0.00    -0.069 SA
HETATM    2  N   UNL     1       9.040 -12.988 -10.768  1.00  0.00    -0.344 N 
HETATM    3  C   UNL     1       9.474 -13.144  -9.476  1.00  0.00     0.052 A 
HETATM    4  C   UNL     1       9.998 -13.388 -11.672  1.00  0.00     0.087 A 
HETATM    5  C   UNL     1      10.744 -13.684  -9.345  1.00  0.00     0.034 A 
HETATM    6  C   UNL     1       8.745 -12.822  -8.318  1.00  0.00     0.031 A 
HETATM    7  C   UNL     1      11.340 -13.919  -8.109  1.00  0.00     0.028 A 
HETATM    8  C   UNL     1       7.681 -12.512 -11.063  1.00  0.00     0.157 C 
HETATM    9  C   UNL     1      10.618 -13.594  -6.946  1.00  0.00    -0.061 A 
HETATM   10  C   UNL     1       9.322 -13.047  -7.058  1.00  0.00     0.009 A 
HETATM   11  C   UNL     1      11.210 -13.825  -5.588  1.00  0.00     0.048 C 
ENDROOT
BRANCH   4  12
HETATM   12  C   UNL     1       9.954 -13.316 -13.168  1.00  0.00    -0.002 A 
HETATM   13  C   UNL     1       9.582 -12.154 -13.868  1.00  0.00     0.016 A 
HETATM   14  C   UNL     1       9.576 -12.123 -15.266  1.00  0.00     0.030 A 
HETATM   15  C   UNL     1       9.952 -13.252 -16.024  1.00  0.00     0.029 A 
HETATM   16  C   UNL     1      10.345 -14.409 -15.318  1.00  0.00     0.030 A 
HETATM   17  C   UNL     1      10.354 -14.434 -13.921  1.00  0.00     0.016 A 
BRANCH  15  18
HETATM   18  N   UNL     1       9.945 -13.222 -17.468  1.00  0.00    -0.390 N 
HETATM   19  C   UNL     1      10.961 -13.936 -18.230  1.00  0.00     0.149 C 
HETATM   20  C   UNL     1       8.923 -12.477 -18.190  1.00  0.00     0.149 C 
ENDBRANCH  15  18
ENDBRANCH   4  12
TORSDOF 2
ENDMDL
MODEL 5
REMARK VINA RESULT:      -5.6      1.655      7.877
REMARK  2 active torsions:
REMARK  status: ('A' for Active; 'I' for Inactive)
REMARK    1  A    between atoms: N_3  and  C_15 
REMARK    2  A    between atoms: C_5  and  C_7 
ROOT
HETATM    1  S   UNL     1       8.073 -12.429 -11.000  1.00  0.00    -0.069 SA
HETATM    2  N   UNL     1      10.377 -13.452 -11.264  1.00  0.00    -0.344 N 
HETATM    3  C   UNL     1      10.120 -13.355  -9.920  1.00  0.00     0.052 A 
HETATM    4  C   UNL     1       9.314 -12.999 -12.013  1.00  0.00     0.087 A 
HETATM    5  C   UNL     1       8.888 -12.811  -9.596  1.00  0.00     0.034 A 
HETATM    6  C   UNL     1      10.992 -13.740  -8.886  1.00  0.00     0.031 A 
HETATM    7  C   UNL     1       8.465 -12.631  -8.281  1.00  0.00     0.028 A 
HETATM    8  C   UNL     1      11.677 -13.925 -11.759  1.00  0.00     0.157 C 
HETATM    9  C   UNL     1       9.330 -13.019  -7.241  1.00  0.00    -0.061 A 
HETATM   10  C   UNL     1      10.591 -13.571  -7.551  1.00  0.00     0.009 A 
HETATM   11  C   UNL     1       8.926 -12.849  -5.807  1.00  0.00     0.048 C 
ENDROOT
BRANCH   4  12
HETATM   12  C   UNL     1       9.158 -12.999 -13.503  1.00  0.00    -0.002 A 
HETATM   13  C   UNL     1       8.569 -14.061 -14.211  1.00  0.00     0.016 A 
HETATM   14  C   UNL     1       8.423 -14.010 -15.601  1.00  0.00     0.030 A 
HETATM   15  C   UNL     1       8.852 -12.888 -16.341  1.00  0.00     0.029 A 
HETATM   16  C   UNL     1       9.422 -11.814 -15.624  1.00  0.00     0.030 A 
HETATM   17  C   UNL     1       9.562 -11.868 -14.235  1.00  0.00     0.016 A 
BRANCH  15  18
HETATM   18  N   UNL     1       8.703 -12.834 -17.776  1.00  0.00    -0.390 N 
HETATM   19  C   UNL     1       9.176 -11.679 -18.528  1.00  0.00     0.149 C 
HETATM   20  C   UNL     1       8.076 -13.932 -18.499  1.00  0.00     0.149 C 
ENDBRANCH  15  18
ENDBRANCH   4  12
TORSDOF 2
ENDMDL
MODEL 6
REMARK VINA RESULT:      -5.6      2.630      4.926
REMARK  2 active torsions:
REMARK  status: ('A' for Active; 'I' for Inactive)
REMARK    1  A    between atoms: N_3  and  C_15 
REMARK    2  A    between atoms: C_5  and  C_7 
ROOT
HETATM    1  S   UNL     1       9.451 -11.720  -9.931  1.00  0.00    -0.069 SA
HETATM    2  N   UNL     1       8.385 -14.010  -9.735  1.00  0.00    -0.344 N 
HETATM    3  C   UNL     1       8.432 -13.690 -11.069  1.00  0.00     0.052 A 
HETATM    4  C   UNL     1       8.944 -13.020  -8.960  1.00  0.00     0.087 A 
HETATM    5  C   UNL     1       8.993 -12.455 -11.356  1.00  0.00     0.034 A 
HETATM    6  C   UNL     1       7.956 -14.487 -12.124  1.00  0.00     0.031 A 
HETATM    7  C   UNL     1       9.114 -11.965 -12.653  1.00  0.00     0.028 A 
HETATM    8  C   UNL     1       7.737 -15.245  -9.271  1.00  0.00     0.157 C 
HETATM    9  C   UNL     1       8.645 -12.760 -13.715  1.00  0.00    -0.061 A 
HETATM   10  C   UNL     1       8.067 -14.018 -13.443  1.00  0.00     0.009 A 
HETATM   11  C   UNL     1       8.750 -12.283 -15.132  1.00  0.00     0.048 C 
ENDROOT
BRANCH   4  12
HETATM   12  C   UNL     1       9.156 -13.007  -7.477  1.00  0.00    -0.002 A 
HETATM   13  C   UNL     1       8.205 -12.501  -6.572  1.00  0.00     0.016 A 
HETATM   14  C   UNL     1       8.434 -12.529  -5.193  1.00  0.00     0.030 A 
HETATM   15  C   UNL     1       9.621 -13.073  -4.659  1.00  0.00     0.029 A 
HETATM   16  C   UNL     1      10.563 -13.600  -5.569  1.00  0.00     0.030 A 
HETATM   17  C   UNL     1      10.328 -13.574  -6.946  1.00  0.00     0.016 A 
BRANCH  15  18
HETATM   18  N   UNL     1       9.859 -13.102  -3.235  1.00  0.00    -0.390 N 
HETATM   19  C   UNL     1      10.930 -13.918  -2.678  1.00  0.00     0.149 C 
HETATM   20  C   UNL     1       9.034 -12.316  -2.329  1.00  0.00     0.149 C 
ENDBRANCH  15  18
ENDBRANCH   4  12
TORSDOF 2
ENDMDL
MODEL 7
REMARK VINA RESULT:      -5.6      2.140      7.904
REMARK  2 active torsions:
REMARK  status: ('A' for Active; 'I' for Inactive)
REMARK    1  A    between atoms: N_3  and  C_15 
REMARK    2  A    between atoms: C_5  and  C_7 
ROOT
HETATM    1  S   UNL     1       9.836 -12.049  -9.992  1.00  0.00    -0.069 SA
HETATM    2  N   UNL     1       8.515 -14.196 -10.248  1.00  0.00    -0.344 N 
HETATM    3  C   UNL     1       8.442 -13.821  -8.930  1.00  0.00     0.052 A 
HETATM    4  C   UNL     1       9.241 -13.291 -10.989  1.00  0.00     0.087 A 
HETATM    5  C   UNL     1       9.118 -12.654  -8.614  1.00  0.00     0.034 A 
HETATM    6  C   UNL     1       7.768 -14.519  -7.913  1.00  0.00     0.031 A 
HETATM    7  C   UNL     1       9.157 -12.130  -7.325  1.00  0.00     0.028 A 
HETATM    8  C   UNL     1       7.924 -15.458 -10.715  1.00  0.00     0.157 C 
HETATM    9  C   UNL     1       8.480 -12.820  -6.302  1.00  0.00    -0.061 A 
HETATM   10  C   UNL     1       7.789 -14.013  -6.603  1.00  0.00     0.009 A 
HETATM   11  C   UNL     1       8.488 -12.302  -4.895  1.00  0.00     0.048 C 
ENDROOT
BRANCH   4  12
HETATM   12  C   UNL     1       9.497 -13.289 -12.465  1.00  0.00    -0.002 A 
HETATM   13  C   UNL     1      10.715 -13.706 -13.031  1.00  0.00     0.016 A 
HETATM   14  C   UNL     1      10.903 -13.709 -14.417  1.00  0.00     0.030 A 
HETATM   15  C   UNL     1       9.878 -13.303 -15.296  1.00  0.00     0.029 A 
HETATM   16  C   UNL     1       8.650 -12.907 -14.725  1.00  0.00     0.030 A 
HETATM   17  C   UNL     1       8.464 -12.909 -13.340  1.00  0.00     0.016 A 
BRANCH  15  18
HETATM   18  N   UNL     1      10.072 -13.305 -16.727  1.00  0.00    -0.390 N 
HETATM   19  C   UNL     1       9.184 -12.544 -17.597  1.00  0.00     0.149 C 
HETATM   20  C   UNL     1      11.157 -14.068 -17.328  1.00  0.00     0.149 C 
ENDBRANCH  15  18
ENDBRANCH   4  12
TORSDOF 2
ENDMDL
MODEL 8
REMARK VINA RESULT:      -5.6      2.015      8.141
REMARK  2 active torsions:
REMARK  status: ('A' for Active; 'I' for Inactive)
REMARK    1  A    between atoms: N_3  and  C_15 
REMARK    2  A    between atoms: C_5  and  C_7 
ROOT
HETATM    1  S   UNL     1       8.188 -13.110 -10.127  1.00  0.00    -0.069 SA
HETATM    2  N   UNL     1      10.694 -13.457  -9.980  1.00  0.00    -0.344 N 
HETATM    3  C   UNL     1      10.198 -13.480  -8.701  1.00  0.00     0.052 A 
HETATM    4  C   UNL     1       9.689 -13.286 -10.906  1.00  0.00     0.087 A 
HETATM    5  C   UNL     1       8.827 -13.303  -8.600  1.00  0.00     0.034 A 
HETATM    6  C   UNL     1      10.955 -13.648  -7.528  1.00  0.00     0.031 A 
HETATM    7  C   UNL     1       8.157 -13.289  -7.380  1.00  0.00     0.028 A 
HETATM    8  C   UNL     1      12.138 -13.542 -10.239  1.00  0.00     0.157 C 
HETATM    9  C   UNL     1       8.907 -13.462  -6.202  1.00  0.00    -0.061 A 
HETATM   10  C   UNL     1      10.304 -13.640  -6.284  1.00  0.00     0.009 A 
HETATM   11  C   UNL     1       8.237 -13.457  -4.861  1.00  0.00     0.048 C 
ENDROOT
BRANCH   4  12
HETATM   12  C   UNL     1       9.791 -13.278 -12.400  1.00  0.00    -0.002 A 
HETATM   13  C   UNL     1      10.420 -14.303 -13.130  1.00  0.00     0.016 A 
HETATM   14  C   UNL     1      10.474 -14.266 -14.527  1.00  0.00     0.030 A 
HETATM   15  C   UNL     1       9.892 -13.206 -15.254  1.00  0.00     0.029 A 
HETATM   16  C   UNL     1       9.243 -12.192 -14.519  1.00  0.00     0.030 A 
HETATM   17  C   UNL     1       9.187 -12.234 -13.124  1.00  0.00     0.016 A 
BRANCH  15  18
HETATM   18  N   UNL     1       9.948 -13.167 -16.697  1.00  0.00    -0.390 N 
HETATM   19  C   UNL     1       9.027 -12.328 -17.452  1.00  0.00     0.149 C 
HETATM   20  C   UNL     1      10.925 -13.966 -17.424  1.00  0.00     0.149 C 
ENDBRANCH  15  18
ENDBRANCH   4  12
TORSDOF 2
ENDMDL
MODEL 9
REMARK VINA RESULT:      -5.5      1.699      1.998
REMARK  2 active torsions:
REMARK  status: ('A' for Active; 'I' for Inactive)
REMARK    1  A    between atoms: N_3  and  C_15 
REMARK    2  A    between atoms: C_5  and  C_7 
ROOT
HETATM    1  S   UNL     1       8.265 -12.572 -15.552  1.00  0.00    -0.069 SA
HETATM    2  N   UNL     1      10.483 -13.744 -15.193  1.00  0.00    -0.344 N 
HETATM    3  C   UNL     1      10.345 -13.526 -16.541  1.00  0.00     0.052 A 
HETATM    4  C   UNL     1       9.411 -13.241 -14.491  1.00  0.00     0.087 A 
HETATM    5  C   UNL     1       9.174 -12.887 -16.915  1.00  0.00     0.034 A 
HETATM    6  C   UNL     1      11.264 -13.906 -17.534  1.00  0.00     0.031 A 
HETATM    7  C   UNL     1       8.864 -12.594 -18.240  1.00  0.00     0.028 A 
HETATM    8  C   UNL     1      11.629 -14.490 -14.656  1.00  0.00     0.157 C 
HETATM    9  C   UNL     1       9.782 -12.965 -19.240  1.00  0.00    -0.061 A 
HETATM   10  C   UNL     1      10.979 -13.621 -18.879  1.00  0.00     0.009 A 
HETATM   11  C   UNL     1       9.502 -12.674 -20.683  1.00  0.00     0.048 C 
ENDROOT
BRANCH   4  12
HETATM   12  C   UNL     1       9.205 -13.206 -13.007  1.00  0.00    -0.002 A 
HETATM   13  C   UNL     1       9.114 -12.009 -12.274  1.00  0.00     0.016 A 
HETATM   14  C   UNL     1       8.899 -12.022 -10.893  1.00  0.00     0.030 A 
HETATM   15  C   UNL     1       8.756 -13.234 -10.186  1.00  0.00     0.029 A 
HETATM   16  C   UNL     1       8.826 -14.432 -10.928  1.00  0.00     0.030 A 
HETATM   17  C   UNL     1       9.036 -14.415 -12.309  1.00  0.00     0.016 A 
BRANCH  15  18
HETATM   18  N   UNL     1       8.535 -13.249  -8.759  1.00  0.00    -0.390 N 
HETATM   19  C   UNL     1       7.820 -14.352  -8.130  1.00  0.00     0.149 C 
HETATM   20  C   UNL     1       9.022 -12.162  -7.921  1.00  0.00     0.149 C 
ENDBRANCH  15  18
ENDBRANCH   4  12
TORSDOF 2
ENDMDL
MODEL 10
REMARK VINA RESULT:      -5.5      1.918      2.513
REMARK  2 active torsions:
REMARK  status: ('A' for Active; 'I' for Inactive)
REMARK    1  A    between atoms: N_3  and  C_15 
REMARK    2  A    between atoms: C_5  and  C_7 
ROOT
HETATM    1  S   UNL     1       8.908 -12.498 -13.601  1.00  0.00    -0.069 SA
HETATM    2  N   UNL     1      10.237 -14.543 -12.915  1.00  0.00    -0.344 N 
HETATM    3  C   UNL     1      10.384 -14.392 -14.271  1.00  0.00     0.052 A 
HETATM    4  C   UNL     1       9.457 -13.543 -12.379  1.00  0.00     0.087 A 
HETATM    5  C   UNL     1       9.714 -13.308 -14.816  1.00  0.00     0.034 A 
HETATM    6  C   UNL     1      11.125 -15.234 -15.117  1.00  0.00     0.031 A 
HETATM    7  C   UNL     1       9.745 -13.008 -16.175  1.00  0.00     0.028 A 
HETATM    8  C   UNL     1      10.814 -15.697 -12.210  1.00  0.00     0.157 C 
HETATM    9  C   UNL     1      10.490 -13.843 -17.028  1.00  0.00    -0.061 A 
HETATM   10  C   UNL     1      11.176 -14.954 -16.492  1.00  0.00     0.009 A 
HETATM   11  C   UNL     1      10.560 -13.567 -18.499  1.00  0.00     0.048 C 
ENDROOT
BRANCH   4  12
HETATM   12  C   UNL     1       9.114 -13.300 -10.941  1.00  0.00    -0.002 A 
HETATM   13  C   UNL     1       8.272 -14.149 -10.201  1.00  0.00     0.016 A 
HETATM   14  C   UNL     1       7.996 -13.897  -8.854  1.00  0.00     0.030 A 
HETATM   15  C   UNL     1       8.558 -12.790  -8.186  1.00  0.00     0.029 A 
HETATM   16  C   UNL     1       9.421 -11.953  -8.925  1.00  0.00     0.030 A 
HETATM   17  C   UNL     1       9.698 -12.210 -10.270  1.00  0.00     0.016 A 
BRANCH  15  18
HETATM   18  N   UNL     1       8.273 -12.528  -6.794  1.00  0.00    -0.390 N 
HETATM   19  C   UNL     1       7.411 -13.422  -6.033  1.00  0.00     0.149 C 
HETATM   20  C   UNL     1       8.841 -11.365  -6.126  1.00  0.00     0.149 C 
ENDBRANCH  15  18
ENDBRANCH   4  12
TORSDOF 2
ENDMDL
MODEL 11
REMARK VINA RESULT:      -5.5      1.718      7.788
REMARK  2 active torsions:
REMARK  status: ('A' for Active; 'I' for Inactive)
REMARK    1  A    between atoms: N_3  and  C_15 
REMARK    2  A    between atoms: C_5  and  C_7 
ROOT
HETATM    1  S   UNL     1       8.924 -11.846 -11.667  1.00  0.00    -0.069 SA
HETATM    2  N   UNL     1      10.021 -14.122 -11.870  1.00  0.00    -0.344 N 
HETATM    3  C   UNL     1       9.905 -13.837 -10.532  1.00  0.00     0.052 A 
HETATM    4  C   UNL     1       9.490 -13.115 -12.645  1.00  0.00     0.087 A 
HETATM    5  C   UNL     1       9.320 -12.615 -10.241  1.00  0.00     0.034 A 
HETATM    6  C   UNL     1      10.337 -14.658  -9.476  1.00  0.00     0.031 A 
HETATM    7  C   UNL     1       9.131 -12.161  -8.939  1.00  0.00     0.028 A 
HETATM    8  C   UNL     1      10.702 -15.338 -12.333  1.00  0.00     0.157 C 
HETATM    9  C   UNL     1       9.555 -12.980  -7.876  1.00  0.00    -0.061 A 
HETATM   10  C   UNL     1      10.158 -14.225  -8.152  1.00  0.00     0.009 A 
HETATM   11  C   UNL     1       9.377 -12.541  -6.454  1.00  0.00     0.048 C 
ENDROOT
BRANCH   4  12
HETATM   12  C   UNL     1       9.351 -13.065 -14.136  1.00  0.00    -0.002 A 
HETATM   13  C   UNL     1      10.451 -13.121 -15.010  1.00  0.00     0.016 A 
HETATM   14  C   UNL     1      10.274 -13.093 -16.397  1.00  0.00     0.030 A 
HETATM   15  C   UNL     1       8.987 -13.018 -16.969  1.00  0.00     0.029 A 
HETATM   16  C   UNL     1       7.884 -12.984 -16.089  1.00  0.00     0.030 A 
HETATM   17  C   UNL     1       8.065 -13.016 -14.704  1.00  0.00     0.016 A 
BRANCH  15  18
HETATM   18  N   UNL     1       8.803 -12.988 -18.401  1.00  0.00    -0.390 N 
HETATM   19  C   UNL     1       8.052 -14.039 -19.074  1.00  0.00     0.149 C 
HETATM   20  C   UNL     1       9.365 -11.907 -19.199  1.00  0.00     0.149 C 
ENDBRANCH  15  18
ENDBRANCH   4  12
TORSDOF 2
ENDMDL
MODEL 12
REMARK VINA RESULT:      -5.5      2.607      4.891
REMARK  2 active torsions:
REMARK  status: ('A' for Active; 'I' for Inactive)
REMARK    1  A    between atoms: N_3  and  C_15 
REMARK    2  A    between atoms: C_5  and  C_7 
ROOT
HETATM    1  S   UNL     1       9.431 -11.758 -19.630  1.00  0.00    -0.069 SA
HETATM    2  N   UNL     1       8.340 -14.035 -19.414  1.00  0.00    -0.344 N 
HETATM    3  C   UNL     1       8.387 -13.725 -20.750  1.00  0.00     0.052 A 
HETATM    4  C   UNL     1       8.913 -13.045 -18.648  1.00  0.00     0.087 A 
HETATM    5  C   UNL     1       8.961 -12.499 -21.048  1.00  0.00     0.034 A 
HETATM    6  C   UNL     1       7.899 -14.525 -21.798  1.00  0.00     0.031 A 
HETATM    7  C   UNL     1       9.083 -12.020 -22.349  1.00  0.00     0.028 A 
HETATM    8  C   UNL     1       7.680 -15.259 -18.939  1.00  0.00     0.157 C 
HETATM    9  C   UNL     1       8.603 -12.818 -23.404  1.00  0.00    -0.061 A 
HETATM   10  C   UNL     1       8.011 -14.067 -23.121  1.00  0.00     0.009 A 
HETATM   11  C   UNL     1       8.709 -12.353 -24.825  1.00  0.00     0.048 C 
ENDROOT
BRANCH   4  12
HETATM   12  C   UNL     1       9.128 -13.023 -17.166  1.00  0.00    -0.002 A 
HETATM   13  C   UNL     1       8.177 -12.520 -16.261  1.00  0.00     0.016 A 
HETATM   14  C   UNL     1       8.410 -12.539 -14.882  1.00  0.00     0.030 A 
HETATM   15  C   UNL     1       9.602 -13.072 -14.349  1.00  0.00     0.029 A 
HETATM   16  C   UNL     1      10.545 -13.597 -15.259  1.00  0.00     0.030 A 
HETATM   17  C   UNL     1      10.306 -13.580 -16.636  1.00  0.00     0.016 A 
BRANCH  15  18
HETATM   18  N   UNL     1       9.845 -13.092 -12.926  1.00  0.00    -0.390 N 
HETATM   19  C   UNL     1      10.911 -13.912 -12.366  1.00  0.00     0.149 C 
HETATM   20  C   UNL     1       9.027 -12.294 -12.022  1.00  0.00     0.149 C 
ENDBRANCH  15  18
ENDBRANCH   4  12
TORSDOF 2
ENDMDL
MODEL 13
REMARK VINA RESULT:      -5.5      2.089      3.710
REMARK  2 active torsions:
REMARK  status: ('A' for Active; 'I' for Inactive)
REMARK    1  A    between atoms: N_3  and  C_15 
REMARK    2  A    between atoms: C_5  and  C_7 
ROOT
HETATM    1  S   UNL     1       8.057 -12.918 -11.750  1.00  0.00    -0.069 SA
HETATM    2  N   UNL     1      10.490 -13.557 -11.446  1.00  0.00    -0.344 N 
HETATM    3  C   UNL     1      10.273 -13.384 -12.790  1.00  0.00     0.052 A 
HETATM    4  C   UNL     1       9.350 -13.305 -10.717  1.00  0.00     0.087 A 
HETATM    5  C   UNL     1       8.979 -13.028 -13.134  1.00  0.00     0.034 A 
HETATM    6  C   UNL     1      11.230 -13.552 -13.806  1.00  0.00     0.031 A 
HETATM    7  C   UNL     1       8.579 -12.821 -14.451  1.00  0.00     0.028 A 
HETATM    8  C   UNL     1      11.788 -14.023 -10.937  1.00  0.00     0.157 C 
HETATM    9  C   UNL     1       9.533 -12.981 -15.474  1.00  0.00    -0.061 A 
HETATM   10  C   UNL     1      10.855 -13.347 -15.143  1.00  0.00     0.009 A 
HETATM   11  C   UNL     1       9.159 -12.769 -16.910  1.00  0.00     0.048 C 
ENDROOT
BRANCH   4  12
HETATM   12  C   UNL     1       9.177 -13.309  -9.228  1.00  0.00    -0.002 A 
HETATM   13  C   UNL     1       9.106 -14.491  -8.469  1.00  0.00     0.016 A 
HETATM   14  C   UNL     1       8.967 -14.448  -7.078  1.00  0.00     0.030 A 
HETATM   15  C   UNL     1       8.904 -13.220  -6.386  1.00  0.00     0.029 A 
HETATM   16  C   UNL     1       8.998 -12.037  -7.150  1.00  0.00     0.030 A 
HETATM   17  C   UNL     1       9.142 -12.084  -8.539  1.00  0.00     0.016 A 
BRANCH  15  18
HETATM   18  N   UNL     1       8.759 -13.175  -4.950  1.00  0.00    -0.390 N 
HETATM   19  C   UNL     1       9.414 -12.132  -4.171  1.00  0.00     0.149 C 
HETATM   20  C   UNL     1       7.958 -14.171  -4.253  1.00  0.00     0.149 C 
ENDBRANCH  15  18
ENDBRANCH   4  12
TORSDOF 2
ENDMDL
MODEL 14
REMARK VINA RESULT:      -5.5      2.576      8.669
REMARK  2 active torsions:
REMARK  status: ('A' for Active; 'I' for Inactive)
REMARK    1  A    between atoms: N_3  and  C_15 
REMARK    2  A    between atoms: C_5  and  C_7 
ROOT
HETATM    1  S   UNL     1       8.040 -12.487 -15.857  1.00  0.00    -0.069 SA
HETATM    2  N   UNL     1      10.332 -13.524 -16.158  1.00  0.00    -0.344 N 
HETATM    3  C   UNL     1      10.086 -13.452 -14.810  1.00  0.00     0.052 A 
HETATM    4  C   UNL     1       9.268 -13.047 -16.890  1.00  0.00     0.087 A 
HETATM    5  C   UNL     1       8.861 -12.903 -14.467  1.00  0.00     0.034 A 
HETATM    6  C   UNL     1      10.961 -13.866 -13.791  1.00  0.00     0.031 A 
HETATM    7  C   UNL     1       8.449 -12.746 -13.146  1.00  0.00     0.028 A 
HETATM    8  C   UNL     1      11.625 -13.999 -16.672  1.00  0.00     0.157 C 
HETATM    9  C   UNL     1       9.316 -13.163 -12.120  1.00  0.00    -0.061 A 
HETATM   10  C   UNL     1      10.570 -13.720 -12.450  1.00  0.00     0.009 A 
HETATM   11  C   UNL     1       8.924 -13.018 -10.680  1.00  0.00     0.048 C 
ENDROOT
BRANCH   4  12
HETATM   12  C   UNL     1       9.102 -13.015 -18.379  1.00  0.00    -0.002 A 
HETATM   13  C   UNL     1       9.405 -11.885 -19.159  1.00  0.00     0.016 A 
HETATM   14  C   UNL     1       9.256 -11.906 -20.549  1.00  0.00     0.030 A 
HETATM   15  C   UNL     1       8.807 -13.063 -21.220  1.00  0.00     0.029 A 
HETATM   16  C   UNL     1       8.526 -14.202 -20.435  1.00  0.00     0.030 A 
HETATM   17  C   UNL     1       8.680 -14.179 -19.047  1.00  0.00     0.016 A 
BRANCH  15  18
HETATM   18  N   UNL     1       8.652 -13.086 -22.655  1.00  0.00    -0.390 N 
HETATM   19  C   UNL     1       9.199 -12.015 -23.477  1.00  0.00     0.149 C 
HETATM   20  C   UNL     1       7.946 -14.179 -23.308  1.00  0.00     0.149 C 
ENDBRANCH  15  18
ENDBRANCH   4  12
TORSDOF 2
ENDMDL
MODEL 15
REMARK VINA RESULT:      -5.5      1.917      2.416
REMARK  2 active torsions:
REMARK  status: ('A' for Active; 'I' for Inactive)
REMARK    1  A    between atoms: N_3  and  C_15 
REMARK    2  A    between atoms: C_5  and  C_7 
ROOT
HETATM    1  S   UNL     1      11.270 -13.908 -15.578  1.00  0.00    -0.069 SA
HETATM    2  N   UNL     1       8.910 -13.091 -16.004  1.00  0.00    -0.344 N 
HETATM    3  C   UNL     1       9.512 -13.267 -17.224  1.00  0.00     0.052 A 
HETATM    4  C   UNL     1       9.754 -13.434 -14.972  1.00  0.00     0.087 A 
HETATM    5  C   UNL     1      10.822 -13.716 -17.172  1.00  0.00     0.034 A 
HETATM    6  C   UNL     1       8.922 -13.019 -18.476  1.00  0.00     0.031 A 
HETATM    7  C   UNL     1      11.587 -13.941 -18.313  1.00  0.00     0.028 A 
HETATM    8  C   UNL     1       7.554 -12.534 -15.897  1.00  0.00     0.157 C 
HETATM    9  C   UNL     1      11.003 -13.700 -19.570  1.00  0.00    -0.061 A 
HETATM   10  C   UNL     1       9.671 -13.239 -19.643  1.00  0.00     0.009 A 
HETATM   11  C   UNL     1      11.780 -13.926 -20.831  1.00  0.00     0.048 C 
ENDROOT
BRANCH   4  12
HETATM   12  C   UNL     1       9.466 -13.457 -13.502  1.00  0.00    -0.002 A 
HETATM   13  C   UNL     1       9.535 -14.629 -12.726  1.00  0.00     0.016 A 
HETATM   14  C   UNL     1       9.280 -14.601 -11.352  1.00  0.00     0.030 A 
HETATM   15  C   UNL     1       8.954 -13.397 -10.692  1.00  0.00     0.029 A 
HETATM   16  C   UNL     1       8.908 -12.221 -11.470  1.00  0.00     0.030 A 
HETATM   17  C   UNL     1       9.168 -12.252 -12.842  1.00  0.00     0.016 A 
BRANCH  15  18
HETATM   18  N   UNL     1       8.689 -13.367  -9.273  1.00  0.00    -0.390 N 
HETATM   19  C   UNL     1       9.178 -12.269  -8.450  1.00  0.00     0.149 C 
HETATM   20  C   UNL     1       7.929 -14.435  -8.637  1.00  0.00     0.149 C 
ENDBRANCH  15  18
ENDBRANCH   4  12
TORSDOF 2
ENDMDL
MODEL 16
REMARK VINA RESULT:      -5.4      2.401      8.262
REMARK  2 active torsions:
REMARK  status: ('A' for Active; 'I' for Inactive)
REMARK    1  A    between atoms: N_3  and  C_15 
REMARK    2  A    between atoms: C_5  and  C_7 
ROOT
HETATM    1  S   UNL     1       8.153 -13.169 -14.946  1.00  0.00    -0.069 SA
HETATM    2  N   UNL     1      10.663 -13.479 -14.792  1.00  0.00    -0.344 N 
HETATM    3  C   UNL     1      10.165 -13.510 -13.514  1.00  0.00     0.052 A 
HETATM    4  C   UNL     1       9.659 -13.322 -15.720  1.00  0.00     0.087 A 
HETATM    5  C   UNL     1       8.791 -13.354 -13.417  1.00  0.00     0.034 A 
HETATM    6  C   UNL     1      10.920 -13.668 -12.339  1.00  0.00     0.031 A 
HETATM    7  C   UNL     1       8.117 -13.351 -12.199  1.00  0.00     0.028 A 
HETATM    8  C   UNL     1      12.109 -13.542 -15.047  1.00  0.00     0.157 C 
HETATM    9  C   UNL     1       8.866 -13.514 -11.019  1.00  0.00    -0.061 A 
HETATM   10  C   UNL     1      10.266 -13.671 -11.097  1.00  0.00     0.009 A 
HETATM   11  C   UNL     1       8.192 -13.520  -9.680  1.00  0.00     0.048 C 
ENDROOT
BRANCH   4  12
HETATM   12  C   UNL     1       9.766 -13.311 -17.214  1.00  0.00    -0.002 A 
HETATM   13  C   UNL     1      10.374 -14.346 -17.946  1.00  0.00     0.016 A 
HETATM   14  C   UNL     1      10.432 -14.306 -19.343  1.00  0.00     0.030 A 
HETATM   15  C   UNL     1       9.877 -13.231 -20.068  1.00  0.00     0.029 A 
HETATM   16  C   UNL     1       9.248 -12.205 -19.331  1.00  0.00     0.030 A 
HETATM   17  C   UNL     1       9.187 -12.251 -17.936  1.00  0.00     0.016 A 
BRANCH  15  18
HETATM   18  N   UNL     1       9.937 -13.187 -21.510  1.00  0.00    -0.390 N 
HETATM   19  C   UNL     1       8.965 -12.413 -22.270  1.00  0.00     0.149 C 
HETATM   20  C   UNL     1      10.971 -13.917 -22.232  1.00  0.00     0.149 C 
ENDBRANCH  15  18
ENDBRANCH   4  12
TORSDOF 2
ENDMDL
MODEL 17
REMARK VINA RESULT:      -5.4      2.590      8.544
REMARK  2 active torsions:
REMARK  status: ('A' for Active; 'I' for Inactive)
REMARK    1  A    between atoms: N_3  and  C_15 
REMARK    2  A    between atoms: C_5  and  C_7 
ROOT
HETATM    1  S   UNL     1      11.365 -13.996 -15.734  1.00  0.00    -0.069 SA
HETATM    2  N   UNL     1       9.038 -12.997 -15.647  1.00  0.00    -0.344 N 
HETATM    3  C   UNL     1       9.469 -13.153 -14.353  1.00  0.00     0.052 A 
HETATM    4  C   UNL     1       9.999 -13.397 -16.548  1.00  0.00     0.087 A 
HETATM    5  C   UNL     1      10.737 -13.694 -14.219  1.00  0.00     0.034 A 
HETATM    6  C   UNL     1       8.736 -12.831 -13.198  1.00  0.00     0.031 A 
HETATM    7  C   UNL     1      11.329 -13.931 -12.981  1.00  0.00     0.028 A 
HETATM    8  C   UNL     1       7.681 -12.520 -15.945  1.00  0.00     0.157 C 
HETATM    9  C   UNL     1      10.604 -13.606 -11.819  1.00  0.00    -0.061 A 
HETATM   10  C   UNL     1       9.309 -13.057 -11.936  1.00  0.00     0.009 A 
HETATM   11  C   UNL     1      11.192 -13.838 -10.460  1.00  0.00     0.048 C 
ENDROOT
BRANCH   4  12
HETATM   12  C   UNL     1       9.960 -13.324 -18.044  1.00  0.00    -0.002 A 
HETATM   13  C   UNL     1       9.553 -12.174 -18.744  1.00  0.00     0.016 A 
HETATM   14  C   UNL     1       9.553 -12.142 -20.142  1.00  0.00     0.030 A 
HETATM   15  C   UNL     1       9.968 -13.257 -20.900  1.00  0.00     0.029 A 
HETATM   16  C   UNL     1      10.397 -14.401 -20.193  1.00  0.00     0.030 A 
HETATM   17  C   UNL     1      10.400 -14.428 -18.797  1.00  0.00     0.016 A 
BRANCH  15  18
HETATM   18  N   UNL     1       9.967 -13.225 -22.344  1.00  0.00    -0.390 N 
HETATM   19  C   UNL     1      10.991 -13.932 -23.102  1.00  0.00     0.149 C 
HETATM   20  C   UNL     1       8.945 -12.484 -23.069  1.00  0.00     0.149 C 
ENDBRANCH  15  18
ENDBRANCH   4  12
TORSDOF 2
ENDMDL
MODEL 18
REMARK VINA RESULT:      -5.4      2.494      3.955
REMARK  2 active torsions:
REMARK  status: ('A' for Active; 'I' for Inactive)
REMARK    1  A    between atoms: N_3  and  C_15 
REMARK    2  A    between atoms: C_5  and  C_7 
ROOT
HETATM    1  S   UNL     1      11.482 -13.917 -11.186  1.00  0.00    -0.069 SA
HETATM    2  N   UNL     1       9.216 -12.787 -11.280  1.00  0.00    -0.344 N 
HETATM    3  C   UNL     1       9.586 -13.076 -12.569  1.00  0.00     0.052 A 
HETATM    4  C   UNL     1      10.160 -13.220 -10.376  1.00  0.00     0.087 A 
HETATM    5  C   UNL     1      10.815 -13.704 -12.700  1.00  0.00     0.034 A 
HETATM    6  C   UNL     1       8.843 -12.778 -13.725  1.00  0.00     0.031 A 
HETATM    7  C   UNL     1      11.351 -14.062 -13.933  1.00  0.00     0.028 A 
HETATM    8  C   UNL     1       7.982 -12.043 -10.990  1.00  0.00     0.157 C 
HETATM    9  C   UNL     1      10.611 -13.773 -15.094  1.00  0.00    -0.061 A 
HETATM   10  C   UNL     1       9.359 -13.131 -14.982  1.00  0.00     0.009 A 
HETATM   11  C   UNL     1      11.139 -14.137 -16.449  1.00  0.00     0.048 C 
ENDROOT
BRANCH   4  12
HETATM   12  C   UNL     1      10.110 -13.166  -8.880  1.00  0.00    -0.002 A 
HETATM   13  C   UNL     1       9.153 -12.417  -8.172  1.00  0.00     0.016 A 
HETATM   14  C   UNL     1       9.129 -12.413  -6.775  1.00  0.00     0.030 A 
HETATM   15  C   UNL     1      10.056 -13.166  -6.024  1.00  0.00     0.029 A 
HETATM   16  C   UNL     1      11.001 -13.933  -6.738  1.00  0.00     0.030 A 
HETATM   17  C   UNL     1      11.019 -13.939  -8.135  1.00  0.00     0.016 A 
BRANCH  15  18
HETATM   18  N   UNL     1      10.033 -13.161  -4.580  1.00  0.00    -0.390 N 
HETATM   19  C   UNL     1      10.854 -14.095  -3.822  1.00  0.00     0.149 C 
HETATM   20  C   UNL     1       9.187 -12.223  -3.854  1.00  0.00     0.149 C 
ENDBRANCH  15  18
ENDBRANCH   4  12
TORSDOF 2
ENDMDL
MODEL 19
REMARK VINA RESULT:      -5.4      1.157      2.049
REMARK  2 active torsions:
REMARK  status: ('A' for Active; 'I' for Inactive)
REMARK    1  A    between atoms: N_3  and  C_15 
REMARK    2  A    between atoms: C_5  and  C_7 
ROOT
HETATM    1  S   UNL     1       8.403 -15.117 -14.601  1.00  0.00    -0.069 SA
HETATM    2  N   UNL     1       9.060 -12.691 -14.924  1.00  0.00    -0.344 N 
HETATM    3  C   UNL     1       8.731 -13.197 -16.157  1.00  0.00     0.052 A 
HETATM    4  C   UNL     1       8.902 -13.635 -13.935  1.00  0.00     0.087 A 
HETATM    5  C   UNL     1       8.344 -14.527 -16.160  1.00  0.00     0.034 A 
HETATM    6  C   UNL     1       8.773 -12.493 -17.373  1.00  0.00     0.031 A 
HETATM    7  C   UNL     1       7.985 -15.206 -17.321  1.00  0.00     0.028 A 
HETATM    8  C   UNL     1       9.575 -11.322 -14.776  1.00  0.00     0.157 C 
HETATM    9  C   UNL     1       8.018 -14.506 -18.542  1.00  0.00    -0.061 A 
HETATM   10  C   UNL     1       8.413 -13.152 -18.560  1.00  0.00     0.009 A 
HETATM   11  C   UNL     1       7.641 -15.186 -19.824  1.00  0.00     0.048 C 
ENDROOT
BRANCH   4  12
HETATM   12  C   UNL     1       9.083 -13.472 -12.456  1.00  0.00    -0.002 A 
HETATM   13  C   UNL     1       8.077 -12.965 -11.614  1.00  0.00     0.016 A 
HETATM   14  C   UNL     1       8.280 -12.851 -10.235  1.00  0.00     0.030 A 
HETATM   15  C   UNL     1       9.495 -13.248  -9.638  1.00  0.00     0.029 A 
HETATM   16  C   UNL     1      10.493 -13.777 -10.484  1.00  0.00     0.030 A 
HETATM   17  C   UNL     1      10.285 -13.894 -11.861  1.00  0.00     0.016 A 
BRANCH  15  18
HETATM   18  N   UNL     1       9.706 -13.129  -8.215  1.00  0.00    -0.390 N 
HETATM   19  C   UNL     1      10.820 -13.813  -7.571  1.00  0.00     0.149 C 
HETATM   20  C   UNL     1       8.810 -12.326  -7.396  1.00  0.00     0.149 C 
ENDBRANCH  15  18
ENDBRANCH   4  12
TORSDOF 2
ENDMDL
MODEL 20
REMARK VINA RESULT:      -5.4      2.259      8.055
REMARK  2 active torsions:
REMARK  status: ('A' for Active; 'I' for Inactive)
REMARK    1  A    between atoms: N_3  and  C_15 
REMARK    2  A    between atoms: C_5  and  C_7 
ROOT
HETATM    1  S   UNL     1       9.465 -11.835 -14.754  1.00  0.00    -0.069 SA
HETATM    2  N   UNL     1       9.364 -14.366 -14.787  1.00  0.00    -0.344 N 
HETATM    3  C   UNL     1       9.216 -13.965 -13.483  1.00  0.00     0.052 A 
HETATM    4  C   UNL     1       9.487 -13.288 -15.634  1.00  0.00     0.087 A 
HETATM    5  C   UNL     1       9.248 -12.594 -13.285  1.00  0.00     0.034 A 
HETATM    6  C   UNL     1       9.057 -14.813 -12.374  1.00  0.00     0.031 A 
HETATM    7  C   UNL     1       9.122 -12.010 -12.027  1.00  0.00     0.028 A 
HETATM    8  C   UNL     1       9.441 -15.791 -15.141  1.00  0.00     0.157 C 
HETATM    9  C   UNL     1       8.956 -12.853 -10.912  1.00  0.00    -0.061 A 
HETATM   10  C   UNL     1       8.925 -14.252 -11.094  1.00  0.00     0.009 A 
HETATM   11  C   UNL     1       8.814 -12.280  -9.534  1.00  0.00     0.048 C 
ENDROOT
BRANCH   4  12
HETATM   12  C   UNL     1       9.594 -13.287 -17.129  1.00  0.00    -0.002 A 
HETATM   13  C   UNL     1       8.580 -12.793 -17.968  1.00  0.00     0.016 A 
HETATM   14  C   UNL     1       8.731 -12.790 -19.358  1.00  0.00     0.030 A 
HETATM   15  C   UNL     1       9.908 -13.273 -19.968  1.00  0.00     0.029 A 
HETATM   16  C   UNL     1      10.932 -13.747 -19.121  1.00  0.00     0.030 A 
HETATM   17  C   UNL     1      10.780 -13.744 -17.732  1.00  0.00     0.016 A 
BRANCH  15  18
HETATM   18  N   UNL     1      10.064 -13.272 -21.404  1.00  0.00    -0.390 N 
HETATM   19  C   UNL     1      11.146 -14.018 -22.033  1.00  0.00     0.149 C 
HETATM   20  C   UNL     1       9.146 -12.523 -22.250  1.00  0.00     0.149 C 
ENDBRANCH  15  18
ENDBRANCH   4  12
TORSDOF 2
ENDMDL
