MODEL 1
REMARK VINA RESULT:      -5.7      0.000      0.000
REMARK  15 active torsions:
REMARK  status: ('A' for Active; 'I' for Inactive)
REMARK    1  A    between atoms: O_1  and  C_22 
REMARK    2  A    between atoms: C_3  and  C_4 
REMARK    3  A    between atoms: C_3  and  C_5 
REMARK    4  A    between atoms: C_4  and  C_6 
REMARK    5  A    between atoms: C_5  and  C_7 
REMARK    6  A    between atoms: C_9  and  C_10 
REMARK    7  A    between atoms: C_9  and  C_13 
REMARK    8  A    between atoms: C_10  and  C_14 
REMARK    9  A    between atoms: C_11  and  C_12 
REMARK   10  A    between atoms: C_12  and  C_16 
REMARK   11  A    between atoms: C_13  and  C_22 
REMARK   12  A    between atoms: C_15  and  C_17 
REMARK   13  A    between atoms: C_15  and  C_20 
REMARK   14  A    between atoms: C_18  and  C_19 
REMARK   15  A    between atoms: C_18  and  C_21 
ROOT
HETATM    1  O   UNL     1      35.643  -6.148 -12.362  1.00  0.00    -0.776 OA
HETATM    2  H   UNL     1      35.517  -6.648 -13.181  1.00  0.00     0.167 HD
ENDROOT
BRANCH   1   3
HETATM    3  C   UNL     1      34.592  -5.743 -11.618  1.00  0.00     0.139 C 
HETATM    4  O   UNL     1      34.566  -4.609 -11.161  1.00  0.00    -0.650 OA
BRANCH   3   5
HETATM    5  C   UNL     1      33.459  -6.694 -11.342  1.00  0.00     0.110 C 
BRANCH   5   6
HETATM    6  C   UNL     1      33.785  -8.130 -11.775  1.00  0.00     0.014 C 
BRANCH   6   7
HETATM    7  C   UNL     1      32.533  -8.931 -12.155  1.00  0.00     0.027 C 
BRANCH   7   8
HETATM    8  C   UNL     1      32.934 -10.162 -12.930  1.00  0.00    -0.030 C 
HETATM    9  C   UNL     1      32.928 -10.271 -14.272  1.00  0.00    -0.027 C 
BRANCH   9  10
HETATM   10  C   UNL     1      32.545  -9.177 -15.236  1.00  0.00     0.053 C 
BRANCH  10  11
HETATM   11  C   UNL     1      31.673  -9.710 -16.351  1.00  0.00    -0.027 C 
HETATM   12  C   UNL     1      30.361 -10.019 -16.291  1.00  0.00    -0.027 C 
BRANCH  12  13
HETATM   13  C   UNL     1      29.451  -9.885 -15.097  1.00  0.00     0.053 C 
BRANCH  13  14
HETATM   14  C   UNL     1      29.072 -11.252 -14.580  1.00  0.00    -0.027 C 
HETATM   15  C   UNL     1      28.634 -11.513 -13.331  1.00  0.00    -0.027 C 
BRANCH  15  16
HETATM   16  C   UNL     1      28.473 -10.478 -12.249  1.00  0.00     0.053 C 
BRANCH  16  17
HETATM   17  C   UNL     1      29.606 -10.534 -11.256  1.00  0.00    -0.027 C 
HETATM   18  C   UNL     1      29.480 -10.996 -10.000  1.00  0.00    -0.030 C 
BRANCH  18  19
HETATM   19  C   UNL     1      28.197 -11.511  -9.397  1.00  0.00     0.027 C 
BRANCH  19  20
HETATM   20  C   UNL     1      28.130 -11.118  -7.918  1.00  0.00     0.004 C 
BRANCH  20  21
HETATM   21  C   UNL     1      29.352 -11.633  -7.150  1.00  0.00    -0.000 C 
BRANCH  21  22
HETATM   22  C   UNL     1      29.838 -10.592  -6.135  1.00  0.00    -0.005 C 
HETATM   23  C   UNL     1      31.029  -9.808  -6.676  1.00  0.00     0.005 C 
ENDBRANCH  21  22
ENDBRANCH  20  21
ENDBRANCH  19  20
ENDBRANCH  18  19
ENDBRANCH  16  17
ENDBRANCH  15  16
ENDBRANCH  13  14
ENDBRANCH  12  13
ENDBRANCH  10  11
ENDBRANCH   9  10
ENDBRANCH   7   8
ENDBRANCH   6   7
ENDBRANCH   5   6
ENDBRANCH   3   5
ENDBRANCH   1   3
TORSDOF 15
ENDMDL
MODEL 2
REMARK VINA RESULT:      -5.6      1.838      5.755
REMARK  15 active torsions:
REMARK  status: ('A' for Active; 'I' for Inactive)
REMARK    1  A    between atoms: O_1  and  C_22 
REMARK    2  A    between atoms: C_3  and  C_4 
REMARK    3  A    between atoms: C_3  and  C_5 
REMARK    4  A    between atoms: C_4  and  C_6 
REMARK    5  A    between atoms: C_5  and  C_7 
REMARK    6  A    between atoms: C_9  and  C_10 
REMARK    7  A    between atoms: C_9  and  C_13 
REMARK    8  A    between atoms: C_10  and  C_14 
REMARK    9  A    between atoms: C_11  and  C_12 
REMARK   10  A    between atoms: C_12  and  C_16 
REMARK   11  A    between atoms: C_13  and  C_22 
REMARK   12  A    between atoms: C_15  and  C_17 
REMARK   13  A    between atoms: C_15  and  C_20 
REMARK   14  A    between atoms: C_18  and  C_19 
REMARK   15  A    between atoms: C_18  and  C_21 
ROOT
HETATM    1  O   UNL     1      35.493  -6.281 -12.387  1.00  0.00    -0.776 OA
HETATM    2  H   UNL     1      35.951  -7.122 -12.246  1.00  0.00     0.167 HD
ENDROOT
BRANCH   1   3
HETATM    3  C   UNL     1      34.518  -5.863 -11.552  1.00  0.00     0.139 C 
HETATM    4  O   UNL     1      34.611  -4.779 -10.995  1.00  0.00    -0.650 OA
BRANCH   3   5
HETATM    5  C   UNL     1      33.322  -6.740 -11.302  1.00  0.00     0.110 C 
BRANCH   5   6
HETATM    6  C   UNL     1      33.592  -8.210 -11.652  1.00  0.00     0.014 C 
BRANCH   6   7
HETATM    7  C   UNL     1      33.556  -9.128 -10.423  1.00  0.00     0.027 C 
BRANCH   7   8
HETATM    8  C   UNL     1      33.972 -10.522 -10.818  1.00  0.00    -0.030 C 
HETATM    9  C   UNL     1      34.064 -11.572  -9.980  1.00  0.00    -0.027 C 
BRANCH   9  10
HETATM   10  C   UNL     1      33.744 -11.545  -8.506  1.00  0.00     0.053 C 
BRANCH  10  11
HETATM   11  C   UNL     1      32.576 -12.451  -8.182  1.00  0.00    -0.027 C 
HETATM   12  C   UNL     1      31.269 -12.120  -8.137  1.00  0.00    -0.027 C 
BRANCH  12  13
HETATM   13  C   UNL     1      30.665 -10.769  -8.421  1.00  0.00     0.053 C 
BRANCH  13  14
HETATM   14  C   UNL     1      29.347 -10.933  -9.141  1.00  0.00    -0.027 C 
HETATM   15  C   UNL     1      29.189 -10.911 -10.480  1.00  0.00    -0.027 C 
BRANCH  15  16
HETATM   16  C   UNL     1      30.307 -10.701 -11.468  1.00  0.00     0.053 C 
BRANCH  16  17
HETATM   17  C   UNL     1      30.845 -12.013 -11.981  1.00  0.00    -0.027 C 
HETATM   18  C   UNL     1      31.598 -12.133 -13.088  1.00  0.00    -0.030 C 
BRANCH  18  19
HETATM   19  C   UNL     1      32.005 -10.988 -13.980  1.00  0.00     0.027 C 
BRANCH  19  20
HETATM   20  C   UNL     1      31.034 -10.887 -15.162  1.00  0.00     0.004 C 
BRANCH  20  21
HETATM   21  C   UNL     1      31.317  -9.640 -16.007  1.00  0.00    -0.000 C 
BRANCH  21  22
HETATM   22  C   UNL     1      32.581  -8.923 -15.517  1.00  0.00    -0.005 C 
HETATM   23  C   UNL     1      33.354  -8.311 -16.682  1.00  0.00     0.005 C 
ENDBRANCH  21  22
ENDBRANCH  20  21
ENDBRANCH  19  20
ENDBRANCH  18  19
ENDBRANCH  16  17
ENDBRANCH  15  16
ENDBRANCH  13  14
ENDBRANCH  12  13
ENDBRANCH  10  11
ENDBRANCH   9  10
ENDBRANCH   7   8
ENDBRANCH   6   7
ENDBRANCH   5   6
ENDBRANCH   3   5
ENDBRANCH   1   3
TORSDOF 15
ENDMDL
MODEL 3
REMARK VINA RESULT:      -5.6      2.059      5.766
REMARK  15 active torsions:
REMARK  status: ('A' for Active; 'I' for Inactive)
REMARK    1  A    between atoms: O_1  and  C_22 
REMARK    2  A    between atoms: C_3  and  C_4 
REMARK    3  A    between atoms: C_3  and  C_5 
REMARK    4  A    between atoms: C_4  and  C_6 
REMARK    5  A    between atoms: C_5  and  C_7 
REMARK    6  A    between atoms: C_9  and  C_10 
REMARK    7  A    between atoms: C_9  and  C_13 
REMARK    8  A    between atoms: C_10  and  C_14 
REMARK    9  A    between atoms: C_11  and  C_12 
REMARK   10  A    between atoms: C_12  and  C_16 
REMARK   11  A    between atoms: C_13  and  C_22 
REMARK   12  A    between atoms: C_15  and  C_17 
REMARK   13  A    between atoms: C_15  and  C_20 
REMARK   14  A    between atoms: C_18  and  C_19 
REMARK   15  A    between atoms: C_18  and  C_21 
ROOT
HETATM    1  O   UNL     1      34.439  -7.509  -7.874  1.00  0.00    -0.776 OA
HETATM    2  H   UNL     1      34.063  -6.708  -8.266  1.00  0.00     0.167 HD
ENDROOT
BRANCH   1   3
HETATM    3  C   UNL     1      33.701  -8.318  -7.085  1.00  0.00     0.139 C 
HETATM    4  O   UNL     1      33.820  -8.264  -5.870  1.00  0.00    -0.650 OA
BRANCH   3   5
HETATM    5  C   UNL     1      32.741  -9.295  -7.707  1.00  0.00     0.110 C 
BRANCH   5   6
HETATM    6  C   UNL     1      32.123 -10.246  -6.671  1.00  0.00     0.014 C 
BRANCH   6   7
HETATM    7  C   UNL     1      30.661  -9.906  -6.356  1.00  0.00     0.027 C 
BRANCH   7   8
HETATM    8  C   UNL     1      29.838 -11.170  -6.340  1.00  0.00    -0.030 C 
HETATM    9  C   UNL     1      29.060 -11.603  -7.349  1.00  0.00    -0.027 C 
BRANCH   9  10
HETATM   10  C   UNL     1      28.892 -10.915  -8.681  1.00  0.00     0.053 C 
BRANCH  10  11
HETATM   11  C   UNL     1      29.968 -11.338  -9.656  1.00  0.00    -0.027 C 
HETATM   12  C   UNL     1      30.053 -11.033 -10.967  1.00  0.00    -0.027 C 
BRANCH  12  13
HETATM   13  C   UNL     1      29.100 -10.178 -11.763  1.00  0.00     0.053 C 
BRANCH  13  14
HETATM   14  C   UNL     1      28.312 -11.039 -12.723  1.00  0.00    -0.027 C 
HETATM   15  C   UNL     1      28.587 -11.187 -14.035  1.00  0.00    -0.027 C 
BRANCH  15  16
HETATM   16  C   UNL     1      29.719 -10.498 -14.752  1.00  0.00     0.053 C 
BRANCH  16  17
HETATM   17  C   UNL     1      30.717 -11.492 -15.291  1.00  0.00    -0.027 C 
HETATM   18  C   UNL     1      32.024 -11.489 -14.975  1.00  0.00    -0.030 C 
BRANCH  18  19
HETATM   19  C   UNL     1      32.684 -10.495 -14.053  1.00  0.00     0.027 C 
BRANCH  19  20
HETATM   20  C   UNL     1      33.495 -11.240 -12.988  1.00  0.00     0.004 C 
BRANCH  20  21
HETATM   21  C   UNL     1      33.650 -10.397 -11.718  1.00  0.00    -0.000 C 
BRANCH  21  22
HETATM   22  C   UNL     1      33.519  -8.903 -12.035  1.00  0.00    -0.005 C 
HETATM   23  C   UNL     1      32.344  -8.282 -11.285  1.00  0.00     0.005 C 
ENDBRANCH  21  22
ENDBRANCH  20  21
ENDBRANCH  19  20
ENDBRANCH  18  19
ENDBRANCH  16  17
ENDBRANCH  15  16
ENDBRANCH  13  14
ENDBRANCH  12  13
ENDBRANCH  10  11
ENDBRANCH   9  10
ENDBRANCH   7   8
ENDBRANCH   6   7
ENDBRANCH   5   6
ENDBRANCH   3   5
ENDBRANCH   1   3
TORSDOF 15
ENDMDL
MODEL 4
REMARK VINA RESULT:      -5.6      2.878      5.675
REMARK  15 active torsions:
REMARK  status: ('A' for Active; 'I' for Inactive)
REMARK    1  A    between atoms: O_1  and  C_22 
REMARK    2  A    between atoms: C_3  and  C_4 
REMARK    3  A    between atoms: C_3  and  C_5 
REMARK    4  A    between atoms: C_4  and  C_6 
REMARK    5  A    between atoms: C_5  and  C_7 
REMARK    6  A    between atoms: C_9  and  C_10 
REMARK    7  A    between atoms: C_9  and  C_13 
REMARK    8  A    between atoms: C_10  and  C_14 
REMARK    9  A    between atoms: C_11  and  C_12 
REMARK   10  A    between atoms: C_12  and  C_16 
REMARK   11  A    between atoms: C_13  and  C_22 
REMARK   12  A    between atoms: C_15  and  C_17 
REMARK   13  A    between atoms: C_15  and  C_20 
REMARK   14  A    between atoms: C_18  and  C_19 
REMARK   15  A    between atoms: C_18  and  C_21 
ROOT
HETATM    1  O   UNL     1      34.105  -7.397 -11.132  1.00  0.00    -0.776 OA
HETATM    2  H   UNL     1      34.808  -7.288 -11.787  1.00  0.00     0.167 HD
ENDROOT
BRANCH   1   3
HETATM    3  C   UNL     1      33.272  -8.459 -11.162  1.00  0.00     0.139 C 
HETATM    4  O   UNL     1      32.971  -9.031 -10.125  1.00  0.00    -0.650 OA
BRANCH   3   5
HETATM    5  C   UNL     1      32.727  -8.943 -12.477  1.00  0.00     0.110 C 
BRANCH   5   6
HETATM    6  C   UNL     1      33.590 -10.052 -13.095  1.00  0.00     0.014 C 
BRANCH   6   7
HETATM    7  C   UNL     1      33.665  -9.960 -14.625  1.00  0.00     0.027 C 
BRANCH   7   8
HETATM    8  C   UNL     1      33.521  -8.522 -15.055  1.00  0.00    -0.030 C 
HETATM    9  C   UNL     1      33.125  -8.113 -16.275  1.00  0.00    -0.027 C 
BRANCH   9  10
HETATM   10  C   UNL     1      32.733  -9.017 -17.417  1.00  0.00     0.053 C 
BRANCH  10  11
HETATM   11  C   UNL     1      33.851  -9.136 -18.430  1.00  0.00    -0.027 C 
HETATM   12  C   UNL     1      33.750  -9.069 -19.773  1.00  0.00    -0.027 C 
BRANCH  12  13
HETATM   13  C   UNL     1      32.498  -8.837 -20.579  1.00  0.00     0.053 C 
BRANCH  13  14
HETATM   14  C   UNL     1      32.129 -10.093 -21.333  1.00  0.00    -0.027 C 
HETATM   15  C   UNL     1      31.234 -11.012 -20.916  1.00  0.00    -0.027 C 
BRANCH  15  16
HETATM   16  C   UNL     1      30.473 -10.934 -19.618  1.00  0.00     0.053 C 
BRANCH  16  17
HETATM   17  C   UNL     1      31.118 -11.778 -18.547  1.00  0.00    -0.027 C 
HETATM   18  C   UNL     1      30.657 -11.872 -17.288  1.00  0.00    -0.030 C 
BRANCH  18  19
HETATM   19  C   UNL     1      29.446 -11.148 -16.759  1.00  0.00     0.027 C 
BRANCH  19  20
HETATM   20  C   UNL     1      29.827 -10.356 -15.504  1.00  0.00     0.004 C 
BRANCH  20  21
HETATM   21  C   UNL     1      30.108 -11.291 -14.322  1.00  0.00    -0.000 C 
BRANCH  21  22
HETATM   22  C   UNL     1      29.537 -10.714 -13.021  1.00  0.00    -0.005 C 
HETATM   23  C   UNL     1      28.208 -11.372 -12.663  1.00  0.00     0.005 C 
ENDBRANCH  21  22
ENDBRANCH  20  21
ENDBRANCH  19  20
ENDBRANCH  18  19
ENDBRANCH  16  17
ENDBRANCH  15  16
ENDBRANCH  13  14
ENDBRANCH  12  13
ENDBRANCH  10  11
ENDBRANCH   9  10
ENDBRANCH   7   8
ENDBRANCH   6   7
ENDBRANCH   5   6
ENDBRANCH   3   5
ENDBRANCH   1   3
TORSDOF 15
ENDMDL
MODEL 5
REMARK VINA RESULT:      -5.6      4.939      7.032
REMARK  15 active torsions:
REMARK  status: ('A' for Active; 'I' for Inactive)
REMARK    1  A    between atoms: O_1  and  C_22 
REMARK    2  A    between atoms: C_3  and  C_4 
REMARK    3  A    between atoms: C_3  and  C_5 
REMARK    4  A    between atoms: C_4  and  C_6 
REMARK    5  A    between atoms: C_5  and  C_7 
REMARK    6  A    between atoms: C_9  and  C_10 
REMARK    7  A    between atoms: C_9  and  C_13 
REMARK    8  A    between atoms: C_10  and  C_14 
REMARK    9  A    between atoms: C_11  and  C_12 
REMARK   10  A    between atoms: C_12  and  C_16 
REMARK   11  A    between atoms: C_13  and  C_22 
REMARK   12  A    between atoms: C_15  and  C_17 
REMARK   13  A    between atoms: C_15  and  C_20 
REMARK   14  A    between atoms: C_18  and  C_19 
REMARK   15  A    between atoms: C_18  and  C_21 
ROOT
HETATM    1  O   UNL     1      35.687  -6.099  -7.629  1.00  0.00    -0.776 OA
HETATM    2  H   UNL     1      35.759  -6.821  -8.268  1.00  0.00     0.167 HD
ENDROOT
BRANCH   1   3
HETATM    3  C   UNL     1      34.599  -5.961  -6.842  1.00  0.00     0.139 C 
HETATM    4  O   UNL     1      34.321  -4.871  -6.365  1.00  0.00    -0.650 OA
BRANCH   3   5
HETATM    5  C   UNL     1      33.736  -7.157  -6.544  1.00  0.00     0.110 C 
BRANCH   5   6
HETATM    6  C   UNL     1      33.749  -8.184  -7.685  1.00  0.00     0.014 C 
BRANCH   6   7
HETATM    7  C   UNL     1      33.444  -9.608  -7.202  1.00  0.00     0.027 C 
BRANCH   7   8
HETATM    8  C   UNL     1      33.774 -10.596  -8.292  1.00  0.00    -0.030 C 
HETATM    9  C   UNL     1      33.130 -11.759  -8.508  1.00  0.00    -0.027 C 
BRANCH   9  10
HETATM   10  C   UNL     1      31.951 -12.265  -7.715  1.00  0.00     0.053 C 
BRANCH  10  11
HETATM   11  C   UNL     1      30.661 -11.629  -8.184  1.00  0.00    -0.027 C 
HETATM   12  C   UNL     1      29.837 -10.829  -7.477  1.00  0.00    -0.027 C 
BRANCH  12  13
HETATM   13  C   UNL     1      30.021 -10.366  -6.054  1.00  0.00     0.053 C 
BRANCH  13  14
HETATM   14  C   UNL     1      28.963 -10.981  -5.169  1.00  0.00    -0.027 C 
HETATM   15  C   UNL     1      29.088 -11.187  -3.842  1.00  0.00    -0.027 C 
BRANCH  15  16
HETATM   16  C   UNL     1      30.316 -10.848  -3.038  1.00  0.00     0.053 C 
BRANCH  16  17
HETATM   17  C   UNL     1      31.034 -12.092  -2.574  1.00  0.00    -0.027 C 
HETATM   18  C   UNL     1      32.138 -12.583  -3.162  1.00  0.00    -0.030 C 
BRANCH  18  19
HETATM   19  C   UNL     1      32.812 -11.979  -4.368  1.00  0.00     0.027 C 
BRANCH  19  20
HETATM   20  C   UNL     1      34.327 -11.938  -4.145  1.00  0.00     0.004 C 
BRANCH  20  21
HETATM   21  C   UNL     1      34.727 -10.747  -3.267  1.00  0.00    -0.000 C 
BRANCH  21  22
HETATM   22  C   UNL     1      33.978  -9.479  -3.693  1.00  0.00    -0.005 C 
HETATM   23  C   UNL     1      33.361  -8.773  -2.489  1.00  0.00     0.005 C 
ENDBRANCH  21  22
ENDBRANCH  20  21
ENDBRANCH  19  20
ENDBRANCH  18  19
ENDBRANCH  16  17
ENDBRANCH  15  16
ENDBRANCH  13  14
ENDBRANCH  12  13
ENDBRANCH  10  11
ENDBRANCH   9  10
ENDBRANCH   7   8
ENDBRANCH   6   7
ENDBRANCH   5   6
ENDBRANCH   3   5
ENDBRANCH   1   3
TORSDOF 15
ENDMDL
MODEL 6
REMARK VINA RESULT:      -5.4      3.637      6.896
REMARK  15 active torsions:
REMARK  status: ('A' for Active; 'I' for Inactive)
REMARK    1  A    between atoms: O_1  and  C_22 
REMARK    2  A    between atoms: C_3  and  C_4 
REMARK    3  A    between atoms: C_3  and  C_5 
REMARK    4  A    between atoms: C_4  and  C_6 
REMARK    5  A    between atoms: C_5  and  C_7 
REMARK    6  A    between atoms: C_9  and  C_10 
REMARK    7  A    between atoms: C_9  and  C_13 
REMARK    8  A    between atoms: C_10  and  C_14 
REMARK    9  A    between atoms: C_11  and  C_12 
REMARK   10  A    between atoms: C_12  and  C_16 
REMARK   11  A    between atoms: C_13  and  C_22 
REMARK   12  A    between atoms: C_15  and  C_17 
REMARK   13  A    between atoms: C_15  and  C_20 
REMARK   14  A    between atoms: C_18  and  C_19 
REMARK   15  A    between atoms: C_18  and  C_21 
ROOT
HETATM    1  O   UNL     1      34.128 -15.562 -11.455  1.00  0.00    -0.776 OA
HETATM    2  H   UNL     1      34.762 -15.217 -10.811  1.00  0.00     0.167 HD
ENDROOT
BRANCH   1   3
HETATM    3  C   UNL     1      34.350 -15.460 -12.783  1.00  0.00     0.139 C 
HETATM    4  O   UNL     1      34.586 -16.461 -13.444  1.00  0.00    -0.650 OA
BRANCH   3   5
HETATM    5  C   UNL     1      34.317 -14.110 -13.445  1.00  0.00     0.110 C 
BRANCH   5   6
HETATM    6  C   UNL     1      33.580 -13.062 -12.598  1.00  0.00     0.014 C 
BRANCH   6   7
HETATM    7  C   UNL     1      33.107 -11.860 -13.425  1.00  0.00     0.027 C 
BRANCH   7   8
HETATM    8  C   UNL     1      34.067 -10.711 -13.247  1.00  0.00    -0.030 C 
HETATM    9  C   UNL     1      33.764  -9.525 -12.687  1.00  0.00    -0.027 C 
BRANCH   9  10
HETATM   10  C   UNL     1      32.420  -9.145 -12.118  1.00  0.00     0.053 C 
BRANCH  10  11
HETATM   11  C   UNL     1      32.490  -8.970 -10.617  1.00  0.00    -0.027 C 
HETATM   12  C   UNL     1      32.085  -9.841  -9.670  1.00  0.00    -0.027 C 
BRANCH  12  13
HETATM   13  C   UNL     1      31.484 -11.206  -9.889  1.00  0.00     0.053 C 
BRANCH  13  14
HETATM   14  C   UNL     1      29.976 -11.114  -9.883  1.00  0.00    -0.027 C 
HETATM   15  C   UNL     1      29.187 -11.261 -10.967  1.00  0.00    -0.027 C 
BRANCH  15  16
HETATM   16  C   UNL     1      29.693 -11.524 -12.361  1.00  0.00     0.053 C 
BRANCH  16  17
HETATM   17  C   UNL     1      28.791 -10.909 -13.402  1.00  0.00    -0.027 C 
HETATM   18  C   UNL     1      29.093 -10.842 -14.710  1.00  0.00    -0.030 C 
BRANCH  18  19
HETATM   19  C   UNL     1      30.369 -11.356 -15.326  1.00  0.00     0.027 C 
BRANCH  19  20
HETATM   20  C   UNL     1      30.439 -10.932 -16.797  1.00  0.00     0.004 C 
BRANCH  20  21
HETATM   21  C   UNL     1      31.044  -9.531 -16.941  1.00  0.00    -0.000 C 
BRANCH  21  22
HETATM   22  C   UNL     1      32.115  -9.285 -15.873  1.00  0.00    -0.005 C 
HETATM   23  C   UNL     1      33.109  -8.219 -16.324  1.00  0.00     0.005 C 
ENDBRANCH  21  22
ENDBRANCH  20  21
ENDBRANCH  19  20
ENDBRANCH  18  19
ENDBRANCH  16  17
ENDBRANCH  15  16
ENDBRANCH  13  14
ENDBRANCH  12  13
ENDBRANCH  10  11
ENDBRANCH   9  10
ENDBRANCH   7   8
ENDBRANCH   6   7
ENDBRANCH   5   6
ENDBRANCH   3   5
ENDBRANCH   1   3
TORSDOF 15
ENDMDL
MODEL 7
REMARK VINA RESULT:      -5.4      2.345      7.101
REMARK  15 active torsions:
REMARK  status: ('A' for Active; 'I' for Inactive)
REMARK    1  A    between atoms: O_1  and  C_22 
REMARK    2  A    between atoms: C_3  and  C_4 
REMARK    3  A    between atoms: C_3  and  C_5 
REMARK    4  A    between atoms: C_4  and  C_6 
REMARK    5  A    between atoms: C_5  and  C_7 
REMARK    6  A    between atoms: C_9  and  C_10 
REMARK    7  A    between atoms: C_9  and  C_13 
REMARK    8  A    between atoms: C_10  and  C_14 
REMARK    9  A    between atoms: C_11  and  C_12 
REMARK   10  A    between atoms: C_12  and  C_16 
REMARK   11  A    between atoms: C_13  and  C_22 
REMARK   12  A    between atoms: C_15  and  C_17 
REMARK   13  A    between atoms: C_15  and  C_20 
REMARK   14  A    between atoms: C_18  and  C_19 
REMARK   15  A    between atoms: C_18  and  C_21 
ROOT
HETATM    1  O   UNL     1      35.097  -5.400  -5.825  1.00  0.00    -0.776 OA
HETATM    2  H   UNL     1      34.595  -5.781  -5.091  1.00  0.00     0.167 HD
ENDROOT
BRANCH   1   3
HETATM    3  C   UNL     1      34.717  -5.584  -7.107  1.00  0.00     0.139 C 
HETATM    4  O   UNL     1      34.663  -4.632  -7.873  1.00  0.00    -0.650 OA
BRANCH   3   5
HETATM    5  C   UNL     1      34.349  -6.961  -7.588  1.00  0.00     0.110 C 
BRANCH   5   6
HETATM    6  C   UNL     1      33.610  -7.775  -6.516  1.00  0.00     0.014 C 
BRANCH   6   7
HETATM    7  C   UNL     1      32.811  -8.943  -7.107  1.00  0.00     0.027 C 
BRANCH   7   8
HETATM    8  C   UNL     1      31.515  -9.106  -6.354  1.00  0.00    -0.030 C 
HETATM    9  C   UNL     1      30.667 -10.144  -6.482  1.00  0.00    -0.027 C 
BRANCH   9  10
HETATM   10  C   UNL     1      30.875 -11.337  -7.379  1.00  0.00     0.053 C 
BRANCH  10  11
HETATM   11  C   UNL     1      29.988 -11.265  -8.602  1.00  0.00    -0.027 C 
HETATM   12  C   UNL     1      30.364 -11.024  -9.875  1.00  0.00    -0.027 C 
BRANCH  12  13
HETATM   13  C   UNL     1      31.765 -10.789 -10.379  1.00  0.00     0.053 C 
BRANCH  13  14
HETATM   14  C   UNL     1      31.960  -9.327 -10.702  1.00  0.00    -0.027 C 
HETATM   15  C   UNL     1      32.379  -8.846 -11.891  1.00  0.00    -0.027 C 
BRANCH  15  16
HETATM   16  C   UNL     1      32.735  -9.700 -13.079  1.00  0.00     0.053 C 
BRANCH  16  17
HETATM   17  C   UNL     1      33.693  -8.990 -14.003  1.00  0.00    -0.027 C 
HETATM   18  C   UNL     1      33.407  -8.670 -15.277  1.00  0.00    -0.030 C 
BRANCH  18  19
HETATM   19  C   UNL     1      32.104  -8.980 -15.971  1.00  0.00     0.027 C 
BRANCH  19  20
HETATM   20  C   UNL     1      32.221 -10.315 -16.714  1.00  0.00     0.004 C 
BRANCH  20  21
HETATM   21  C   UNL     1      30.969 -10.595 -17.551  1.00  0.00    -0.000 C 
BRANCH  21  22
HETATM   22  C   UNL     1      30.062 -11.616 -16.853  1.00  0.00    -0.005 C 
HETATM   23  C   UNL     1      28.589 -11.287 -17.074  1.00  0.00     0.005 C 
ENDBRANCH  21  22
ENDBRANCH  20  21
ENDBRANCH  19  20
ENDBRANCH  18  19
ENDBRANCH  16  17
ENDBRANCH  15  16
ENDBRANCH  13  14
ENDBRANCH  12  13
ENDBRANCH  10  11
ENDBRANCH   9  10
ENDBRANCH   7   8
ENDBRANCH   6   7
ENDBRANCH   5   6
ENDBRANCH   3   5
ENDBRANCH   1   3
TORSDOF 15
ENDMDL
MODEL 8
REMARK VINA RESULT:      -5.4      3.733      7.616
REMARK  15 active torsions:
REMARK  status: ('A' for Active; 'I' for Inactive)
REMARK    1  A    between atoms: O_1  and  C_22 
REMARK    2  A    between atoms: C_3  and  C_4 
REMARK    3  A    between atoms: C_3  and  C_5 
REMARK    4  A    between atoms: C_4  and  C_6 
REMARK    5  A    between atoms: C_5  and  C_7 
REMARK    6  A    between atoms: C_9  and  C_10 
REMARK    7  A    between atoms: C_9  and  C_13 
REMARK    8  A    between atoms: C_10  and  C_14 
REMARK    9  A    between atoms: C_11  and  C_12 
REMARK   10  A    between atoms: C_12  and  C_16 
REMARK   11  A    between atoms: C_13  and  C_22 
REMARK   12  A    between atoms: C_15  and  C_17 
REMARK   13  A    between atoms: C_15  and  C_20 
REMARK   14  A    between atoms: C_18  and  C_19 
REMARK   15  A    between atoms: C_18  and  C_21 
ROOT
HETATM    1  O   UNL     1      28.777 -10.990  -9.172  1.00  0.00    -0.776 OA
HETATM    2  H   UNL     1      28.758 -10.073  -9.481  1.00  0.00     0.167 HD
ENDROOT
BRANCH   1   3
HETATM    3  C   UNL     1      28.338 -11.326  -7.940  1.00  0.00     0.139 C 
HETATM    4  O   UNL     1      27.140 -11.331  -7.697  1.00  0.00    -0.650 OA
BRANCH   3   5
HETATM    5  C   UNL     1      29.328 -11.682  -6.865  1.00  0.00     0.110 C 
BRANCH   5   6
HETATM    6  C   UNL     1      29.640 -10.495  -5.943  1.00  0.00     0.014 C 
BRANCH   6   7
HETATM    7  C   UNL     1      31.145 -10.300  -5.718  1.00  0.00     0.027 C 
BRANCH   7   8
HETATM    8  C   UNL     1      31.645 -11.313  -4.719  1.00  0.00    -0.030 C 
HETATM    9  C   UNL     1      32.718 -12.109  -4.890  1.00  0.00    -0.027 C 
BRANCH   9  10
HETATM   10  C   UNL     1      33.622 -12.110  -6.097  1.00  0.00     0.053 C 
BRANCH  10  11
HETATM   11  C   UNL     1      33.345 -13.300  -6.988  1.00  0.00    -0.027 C 
HETATM   12  C   UNL     1      33.212 -13.307  -8.331  1.00  0.00    -0.027 C 
BRANCH  12  13
HETATM   13  C   UNL     1      33.330 -12.126  -9.260  1.00  0.00     0.053 C 
BRANCH  13  14
HETATM   14  C   UNL     1      32.128 -11.224  -9.104  1.00  0.00    -0.027 C 
HETATM   15  C   UNL     1      32.035  -9.969  -9.590  1.00  0.00    -0.027 C 
BRANCH  15  16
HETATM   16  C   UNL     1      33.127  -9.265 -10.351  1.00  0.00     0.053 C 
BRANCH  16  17
HETATM   17  C   UNL     1      32.613  -8.685 -11.646  1.00  0.00    -0.027 C 
HETATM   18  C   UNL     1      32.749  -9.284 -12.842  1.00  0.00    -0.030 C 
BRANCH  18  19
HETATM   19  C   UNL     1      33.438 -10.606 -13.068  1.00  0.00     0.027 C 
BRANCH  19  20
HETATM   20  C   UNL     1      32.446 -11.750 -12.838  1.00  0.00     0.004 C 
BRANCH  20  21
HETATM   21  C   UNL     1      31.080 -11.433 -13.455  1.00  0.00    -0.000 C 
BRANCH  21  22
HETATM   22  C   UNL     1      29.950 -11.718 -12.459  1.00  0.00    -0.005 C 
HETATM   23  C   UNL     1      28.745 -10.819 -12.719  1.00  0.00     0.005 C 
ENDBRANCH  21  22
ENDBRANCH  20  21
ENDBRANCH  19  20
ENDBRANCH  18  19
ENDBRANCH  16  17
ENDBRANCH  15  16
ENDBRANCH  13  14
ENDBRANCH  12  13
ENDBRANCH  10  11
ENDBRANCH   9  10
ENDBRANCH   7   8
ENDBRANCH   6   7
ENDBRANCH   5   6
ENDBRANCH   3   5
ENDBRANCH   1   3
TORSDOF 15
ENDMDL
MODEL 9
REMARK VINA RESULT:      -5.4      2.417      5.016
REMARK  15 active torsions:
REMARK  status: ('A' for Active; 'I' for Inactive)
REMARK    1  A    between atoms: O_1  and  C_22 
REMARK    2  A    between atoms: C_3  and  C_4 
REMARK    3  A    between atoms: C_3  and  C_5 
REMARK    4  A    between atoms: C_4  and  C_6 
REMARK    5  A    between atoms: C_5  and  C_7 
REMARK    6  A    between atoms: C_9  and  C_10 
REMARK    7  A    between atoms: C_9  and  C_13 
REMARK    8  A    between atoms: C_10  and  C_14 
REMARK    9  A    between atoms: C_11  and  C_12 
REMARK   10  A    between atoms: C_12  and  C_16 
REMARK   11  A    between atoms: C_13  and  C_22 
REMARK   12  A    between atoms: C_15  and  C_17 
REMARK   13  A    between atoms: C_15  and  C_20 
REMARK   14  A    between atoms: C_18  and  C_19 
REMARK   15  A    between atoms: C_18  and  C_21 
ROOT
HETATM    1  O   UNL     1      34.259  -7.032 -11.020  1.00  0.00    -0.776 OA
HETATM    2  H   UNL     1      33.995  -6.706 -10.147  1.00  0.00     0.167 HD
ENDROOT
BRANCH   1   3
HETATM    3  C   UNL     1      33.671  -8.113 -11.574  1.00  0.00     0.139 C 
HETATM    4  O   UNL     1      33.884  -8.393 -12.745  1.00  0.00    -0.650 OA
BRANCH   3   5
HETATM    5  C   UNL     1      32.744  -8.964 -10.751  1.00  0.00     0.110 C 
BRANCH   5   6
HETATM    6  C   UNL     1      33.313  -9.269  -9.358  1.00  0.00     0.014 C 
BRANCH   6   7
HETATM    7  C   UNL     1      32.220  -9.570  -8.325  1.00  0.00     0.027 C 
BRANCH   7   8
HETATM    8  C   UNL     1      31.907 -11.045  -8.332  1.00  0.00    -0.030 C 
HETATM    9  C   UNL     1      30.708 -11.583  -8.626  1.00  0.00    -0.027 C 
BRANCH   9  10
HETATM   10  C   UNL     1      29.476 -10.809  -9.023  1.00  0.00     0.053 C 
BRANCH  10  11
HETATM   11  C   UNL     1      28.601 -11.613  -9.959  1.00  0.00    -0.027 C 
HETATM   12  C   UNL     1      28.495 -11.483 -11.297  1.00  0.00    -0.027 C 
BRANCH  12  13
HETATM   13  C   UNL     1      29.244 -10.514 -12.177  1.00  0.00     0.053 C 
BRANCH  13  14
HETATM   14  C   UNL     1      29.070 -10.894 -13.629  1.00  0.00    -0.027 C 
HETATM   15  C   UNL     1      30.055 -10.902 -14.550  1.00  0.00    -0.027 C 
BRANCH  15  16
HETATM   16  C   UNL     1      31.485 -10.515 -14.274  1.00  0.00     0.053 C 
BRANCH  16  17
HETATM   17  C   UNL     1      32.419 -11.686 -14.454  1.00  0.00    -0.027 C 
HETATM   18  C   UNL     1      32.748 -12.542 -13.471  1.00  0.00    -0.030 C 
BRANCH  18  19
HETATM   19  C   UNL     1      32.248 -12.453 -12.051  1.00  0.00     0.027 C 
BRANCH  19  20
HETATM   20  C   UNL     1      33.353 -12.900 -11.088  1.00  0.00     0.004 C 
BRANCH  20  21
HETATM   21  C   UNL     1      34.643 -12.106 -11.317  1.00  0.00    -0.000 C 
BRANCH  21  22
HETATM   22  C   UNL     1      35.871 -12.933 -10.917  1.00  0.00    -0.005 C 
HETATM   23  C   UNL     1      35.463 -14.291 -10.356  1.00  0.00     0.005 C 
ENDBRANCH  21  22
ENDBRANCH  20  21
ENDBRANCH  19  20
ENDBRANCH  18  19
ENDBRANCH  16  17
ENDBRANCH  15  16
ENDBRANCH  13  14
ENDBRANCH  12  13
ENDBRANCH  10  11
ENDBRANCH   9  10
ENDBRANCH   7   8
ENDBRANCH   6   7
ENDBRANCH   5   6
ENDBRANCH   3   5
ENDBRANCH   1   3
TORSDOF 15
ENDMDL
MODEL 10
REMARK VINA RESULT:      -5.3      3.919      5.783
REMARK  15 active torsions:
REMARK  status: ('A' for Active; 'I' for Inactive)
REMARK    1  A    between atoms: O_1  and  C_22 
REMARK    2  A    between atoms: C_3  and  C_4 
REMARK    3  A    between atoms: C_3  and  C_5 
REMARK    4  A    between atoms: C_4  and  C_6 
REMARK    5  A    between atoms: C_5  and  C_7 
REMARK    6  A    between atoms: C_9  and  C_10 
REMARK    7  A    between atoms: C_9  and  C_13 
REMARK    8  A    between atoms: C_10  and  C_14 
REMARK    9  A    between atoms: C_11  and  C_12 
REMARK   10  A    between atoms: C_12  and  C_16 
REMARK   11  A    between atoms: C_13  and  C_22 
REMARK   12  A    between atoms: C_15  and  C_17 
REMARK   13  A    between atoms: C_15  and  C_20 
REMARK   14  A    between atoms: C_18  and  C_19 
REMARK   15  A    between atoms: C_18  and  C_21 
ROOT
HETATM    1  O   UNL     1      33.292  -4.273  -6.676  1.00  0.00    -0.776 OA
HETATM    2  H   UNL     1      33.504  -3.582  -7.319  1.00  0.00     0.167 HD
ENDROOT
BRANCH   1   3
HETATM    3  C   UNL     1      34.226  -5.152  -6.255  1.00  0.00     0.139 C 
HETATM    4  O   UNL     1      34.940  -4.877  -5.302  1.00  0.00    -0.650 OA
BRANCH   3   5
HETATM    5  C   UNL     1      34.393  -6.465  -6.970  1.00  0.00     0.110 C 
BRANCH   5   6
HETATM    6  C   UNL     1      33.564  -7.588  -6.329  1.00  0.00     0.014 C 
BRANCH   6   7
HETATM    7  C   UNL     1      33.157  -8.671  -7.336  1.00  0.00     0.027 C 
BRANCH   7   8
HETATM    8  C   UNL     1      34.030  -8.578  -8.563  1.00  0.00    -0.030 C 
HETATM    9  C   UNL     1      33.655  -8.919  -9.810  1.00  0.00    -0.027 C 
BRANCH   9  10
HETATM   10  C   UNL     1      32.292  -9.429 -10.205  1.00  0.00     0.053 C 
BRANCH  10  11
HETATM   11  C   UNL     1      32.303 -10.930 -10.394  1.00  0.00    -0.027 C 
HETATM   12  C   UNL     1      31.838 -11.867  -9.542  1.00  0.00    -0.027 C 
BRANCH  12  13
HETATM   13  C   UNL     1      31.180 -11.633  -8.206  1.00  0.00     0.053 C 
BRANCH  13  14
HETATM   14  C   UNL     1      29.695 -11.425  -8.391  1.00  0.00    -0.027 C 
HETATM   15  C   UNL     1      28.912 -10.682  -7.583  1.00  0.00    -0.027 C 
BRANCH  15  16
HETATM   16  C   UNL     1      29.397  -9.956  -6.356  1.00  0.00     0.053 C 
BRANCH  16  17
HETATM   17  C   UNL     1      29.288 -10.818  -5.123  1.00  0.00    -0.027 C 
HETATM   18  C   UNL     1      30.300 -11.032  -4.265  1.00  0.00    -0.030 C 
BRANCH  18  19
HETATM   19  C   UNL     1      31.687 -10.457  -4.411  1.00  0.00     0.027 C 
BRANCH  19  20
HETATM   20  C   UNL     1      32.660 -11.562  -4.835  1.00  0.00     0.004 C 
BRANCH  20  21
HETATM   21  C   UNL     1      34.004 -11.425  -4.112  1.00  0.00    -0.000 C 
BRANCH  21  22
HETATM   22  C   UNL     1      34.401 -12.747  -3.444  1.00  0.00    -0.005 C 
HETATM   23  C   UNL     1      33.186 -13.450  -2.847  1.00  0.00     0.005 C 
ENDBRANCH  21  22
ENDBRANCH  20  21
ENDBRANCH  19  20
ENDBRANCH  18  19
ENDBRANCH  16  17
ENDBRANCH  15  16
ENDBRANCH  13  14
ENDBRANCH  12  13
ENDBRANCH  10  11
ENDBRANCH   9  10
ENDBRANCH   7   8
ENDBRANCH   6   7
ENDBRANCH   5   6
ENDBRANCH   3   5
ENDBRANCH   1   3
TORSDOF 15
ENDMDL
MODEL 11
REMARK VINA RESULT:      -5.3      3.820      5.216
REMARK  15 active torsions:
REMARK  status: ('A' for Active; 'I' for Inactive)
REMARK    1  A    between atoms: O_1  and  C_22 
REMARK    2  A    between atoms: C_3  and  C_4 
REMARK    3  A    between atoms: C_3  and  C_5 
REMARK    4  A    between atoms: C_4  and  C_6 
REMARK    5  A    between atoms: C_5  and  C_7 
REMARK    6  A    between atoms: C_9  and  C_10 
REMARK    7  A    between atoms: C_9  and  C_13 
REMARK    8  A    between atoms: C_10  and  C_14 
REMARK    9  A    between atoms: C_11  and  C_12 
REMARK   10  A    between atoms: C_12  and  C_16 
REMARK   11  A    between atoms: C_13  and  C_22 
REMARK   12  A    between atoms: C_15  and  C_17 
REMARK   13  A    between atoms: C_15  and  C_20 
REMARK   14  A    between atoms: C_18  and  C_19 
REMARK   15  A    between atoms: C_18  and  C_21 
ROOT
HETATM    1  O   UNL     1      34.002 -16.305 -12.685  1.00  0.00    -0.776 OA
HETATM    2  H   UNL     1      33.188 -16.787 -12.484  1.00  0.00     0.167 HD
ENDROOT
BRANCH   1   3
HETATM    3  C   UNL     1      34.185 -15.032 -12.275  1.00  0.00     0.139 C 
HETATM    4  O   UNL     1      33.895 -14.709 -11.132  1.00  0.00    -0.650 OA
BRANCH   3   5
HETATM    5  C   UNL     1      34.734 -14.009 -13.232  1.00  0.00     0.110 C 
BRANCH   5   6
HETATM    6  C   UNL     1      33.654 -13.442 -14.163  1.00  0.00     0.014 C 
BRANCH   6   7
HETATM    7  C   UNL     1      33.961 -13.690 -15.646  1.00  0.00     0.027 C 
BRANCH   7   8
HETATM    8  C   UNL     1      34.213 -12.374 -16.339  1.00  0.00    -0.030 C 
HETATM    9  C   UNL     1      33.464 -11.867 -17.337  1.00  0.00    -0.027 C 
BRANCH   9  10
HETATM   10  C   UNL     1      32.231 -12.511 -17.919  1.00  0.00     0.053 C 
BRANCH  10  11
HETATM   11  C   UNL     1      31.464 -11.539 -18.788  1.00  0.00    -0.027 C 
HETATM   12  C   UNL     1      30.171 -11.173 -18.666  1.00  0.00    -0.027 C 
BRANCH  12  13
HETATM   13  C   UNL     1      29.193 -11.636 -17.617  1.00  0.00     0.053 C 
BRANCH  13  14
HETATM   14  C   UNL     1      28.926 -10.522 -16.632  1.00  0.00    -0.027 C 
HETATM   15  C   UNL     1      29.614 -10.318 -15.490  1.00  0.00    -0.027 C 
BRANCH  15  16
HETATM   16  C   UNL     1      30.749 -11.185 -15.011  1.00  0.00     0.053 C 
BRANCH  16  17
HETATM   17  C   UNL     1      31.496 -10.537 -13.872  1.00  0.00    -0.027 C 
HETATM   18  C   UNL     1      31.343 -10.884 -12.582  1.00  0.00    -0.030 C 
BRANCH  18  19
HETATM   19  C   UNL     1      30.403 -11.953 -12.084  1.00  0.00     0.027 C 
BRANCH  19  20
HETATM   20  C   UNL     1      29.160 -11.300 -11.472  1.00  0.00     0.004 C 
BRANCH  20  21
HETATM   21  C   UNL     1      29.451 -10.761 -10.067  1.00  0.00    -0.000 C 
BRANCH  21  22
HETATM   22  C   UNL     1      28.436 -11.302  -9.053  1.00  0.00    -0.005 C 
HETATM   23  C   UNL     1      28.754 -10.816  -7.642  1.00  0.00     0.005 C 
ENDBRANCH  21  22
ENDBRANCH  20  21
ENDBRANCH  19  20
ENDBRANCH  18  19
ENDBRANCH  16  17
ENDBRANCH  15  16
ENDBRANCH  13  14
ENDBRANCH  12  13
ENDBRANCH  10  11
ENDBRANCH   9  10
ENDBRANCH   7   8
ENDBRANCH   6   7
ENDBRANCH   5   6
ENDBRANCH   3   5
ENDBRANCH   1   3
TORSDOF 15
ENDMDL
MODEL 12
REMARK VINA RESULT:      -5.3      3.755      5.320
REMARK  15 active torsions:
REMARK  status: ('A' for Active; 'I' for Inactive)
REMARK    1  A    between atoms: O_1  and  C_22 
REMARK    2  A    between atoms: C_3  and  C_4 
REMARK    3  A    between atoms: C_3  and  C_5 
REMARK    4  A    between atoms: C_4  and  C_6 
REMARK    5  A    between atoms: C_5  and  C_7 
REMARK    6  A    between atoms: C_9  and  C_10 
REMARK    7  A    between atoms: C_9  and  C_13 
REMARK    8  A    between atoms: C_10  and  C_14 
REMARK    9  A    between atoms: C_11  and  C_12 
REMARK   10  A    between atoms: C_12  and  C_16 
REMARK   11  A    between atoms: C_13  and  C_22 
REMARK   12  A    between atoms: C_15  and  C_17 
REMARK   13  A    between atoms: C_15  and  C_20 
REMARK   14  A    between atoms: C_18  and  C_19 
REMARK   15  A    between atoms: C_18  and  C_21 
ROOT
HETATM    1  O   UNL     1      34.413  -8.122  -3.332  1.00  0.00    -0.776 OA
HETATM    2  H   UNL     1      33.676  -7.703  -2.865  1.00  0.00     0.167 HD
ENDROOT
BRANCH   1   3
HETATM    3  C   UNL     1      34.249  -9.280  -4.007  1.00  0.00     0.139 C 
HETATM    4  O   UNL     1      34.834 -10.290  -3.643  1.00  0.00    -0.650 OA
BRANCH   3   5
HETATM    5  C   UNL     1      33.354  -9.321  -5.215  1.00  0.00     0.110 C 
BRANCH   5   6
HETATM    6  C   UNL     1      33.626  -8.161  -6.183  1.00  0.00     0.014 C 
BRANCH   6   7
HETATM    7  C   UNL     1      33.083  -8.427  -7.593  1.00  0.00     0.027 C 
BRANCH   7   8
HETATM    8  C   UNL     1      32.888  -9.910  -7.791  1.00  0.00    -0.030 C 
HETATM    9  C   UNL     1      32.949 -10.550  -8.974  1.00  0.00    -0.027 C 
BRANCH   9  10
HETATM   10  C   UNL     1      33.247  -9.904 -10.303  1.00  0.00     0.053 C 
BRANCH  10  11
HETATM   11  C   UNL     1      32.026  -9.202 -10.857  1.00  0.00    -0.027 C 
HETATM   12  C   UNL     1      30.992  -9.757 -11.521  1.00  0.00    -0.027 C 
BRANCH  12  13
HETATM   13  C   UNL     1      30.802 -11.216 -11.849  1.00  0.00     0.053 C 
BRANCH  13  14
HETATM   14  C   UNL     1      29.354 -11.604 -11.662  1.00  0.00    -0.027 C 
HETATM   15  C   UNL     1      28.661 -11.477 -10.512  1.00  0.00    -0.027 C 
BRANCH  15  16
HETATM   16  C   UNL     1      29.234 -10.943  -9.225  1.00  0.00     0.053 C 
BRANCH  16  17
HETATM   17  C   UNL     1      28.314 -11.206  -8.059  1.00  0.00    -0.027 C 
HETATM   18  C   UNL     1      28.734 -11.350  -6.790  1.00  0.00    -0.030 C 
BRANCH  18  19
HETATM   19  C   UNL     1      30.174 -11.283  -6.348  1.00  0.00     0.027 C 
BRANCH  19  20
HETATM   20  C   UNL     1      30.241 -11.241  -4.818  1.00  0.00     0.004 C 
BRANCH  20  21
HETATM   21  C   UNL     1      28.845 -11.083  -4.206  1.00  0.00    -0.000 C 
BRANCH  21  22
HETATM   22  C   UNL     1      28.886 -11.303  -2.689  1.00  0.00    -0.005 C 
HETATM   23  C   UNL     1      28.021 -10.280  -1.960  1.00  0.00     0.005 C 
ENDBRANCH  21  22
ENDBRANCH  20  21
ENDBRANCH  19  20
ENDBRANCH  18  19
ENDBRANCH  16  17
ENDBRANCH  15  16
ENDBRANCH  13  14
ENDBRANCH  12  13
ENDBRANCH  10  11
ENDBRANCH   9  10
ENDBRANCH   7   8
ENDBRANCH   6   7
ENDBRANCH   5   6
ENDBRANCH   3   5
ENDBRANCH   1   3
TORSDOF 15
ENDMDL
MODEL 13
REMARK VINA RESULT:      -5.3      2.787      4.891
REMARK  15 active torsions:
REMARK  status: ('A' for Active; 'I' for Inactive)
REMARK    1  A    between atoms: O_1  and  C_22 
REMARK    2  A    between atoms: C_3  and  C_4 
REMARK    3  A    between atoms: C_3  and  C_5 
REMARK    4  A    between atoms: C_4  and  C_6 
REMARK    5  A    between atoms: C_5  and  C_7 
REMARK    6  A    between atoms: C_9  and  C_10 
REMARK    7  A    between atoms: C_9  and  C_13 
REMARK    8  A    between atoms: C_10  and  C_14 
REMARK    9  A    between atoms: C_11  and  C_12 
REMARK   10  A    between atoms: C_12  and  C_16 
REMARK   11  A    between atoms: C_13  and  C_22 
REMARK   12  A    between atoms: C_15  and  C_17 
REMARK   13  A    between atoms: C_15  and  C_20 
REMARK   14  A    between atoms: C_18  and  C_19 
REMARK   15  A    between atoms: C_18  and  C_21 
ROOT
HETATM    1  O   UNL     1      34.040  -8.365 -14.955  1.00  0.00    -0.776 OA
HETATM    2  H   UNL     1      33.656  -9.144 -14.528  1.00  0.00     0.167 HD
ENDROOT
BRANCH   1   3
HETATM    3  C   UNL     1      33.674  -7.995 -16.200  1.00  0.00     0.139 C 
HETATM    4  O   UNL     1      34.236  -7.059 -16.751  1.00  0.00    -0.650 OA
BRANCH   3   5
HETATM    5  C   UNL     1      32.566  -8.729 -16.904  1.00  0.00     0.110 C 
BRANCH   5   6
HETATM    6  C   UNL     1      31.634  -9.457 -15.924  1.00  0.00     0.014 C 
BRANCH   6   7
HETATM    7  C   UNL     1      30.325  -9.913 -16.582  1.00  0.00     0.027 C 
BRANCH   7   8
HETATM    8  C   UNL     1      30.177 -11.407 -16.435  1.00  0.00    -0.030 C 
HETATM    9  C   UNL     1      30.830 -12.328 -17.168  1.00  0.00    -0.027 C 
BRANCH   9  10
HETATM   10  C   UNL     1      31.841 -12.030 -18.247  1.00  0.00     0.053 C 
BRANCH  10  11
HETATM   11  C   UNL     1      33.023 -12.971 -18.165  1.00  0.00    -0.027 C 
HETATM   12  C   UNL     1      33.945 -13.047 -17.184  1.00  0.00    -0.027 C 
BRANCH  12  13
HETATM   13  C   UNL     1      34.000 -12.220 -15.924  1.00  0.00     0.053 C 
BRANCH  13  14
HETATM   14  C   UNL     1      33.435 -13.005 -14.765  1.00  0.00    -0.027 C 
HETATM   15  C   UNL     1      33.050 -12.476 -13.586  1.00  0.00    -0.027 C 
BRANCH  15  16
HETATM   16  C   UNL     1      33.142 -11.013 -13.236  1.00  0.00     0.053 C 
BRANCH  16  17
HETATM   17  C   UNL     1      33.561 -10.813 -11.801  1.00  0.00    -0.027 C 
HETATM   18  C   UNL     1      32.808 -10.186 -10.881  1.00  0.00    -0.030 C 
BRANCH  18  19
HETATM   19  C   UNL     1      31.451  -9.584 -11.144  1.00  0.00     0.027 C 
BRANCH  19  20
HETATM   20  C   UNL     1      30.365 -10.480 -10.540  1.00  0.00     0.004 C 
BRANCH  20  21
HETATM   21  C   UNL     1      29.986 -11.615 -11.498  1.00  0.00    -0.000 C 
BRANCH  21  22
HETATM   22  C   UNL     1      29.571 -11.060 -12.866  1.00  0.00    -0.005 C 
HETATM   23  C   UNL     1      28.093 -11.317 -13.140  1.00  0.00     0.005 C 
ENDBRANCH  21  22
ENDBRANCH  20  21
ENDBRANCH  19  20
ENDBRANCH  18  19
ENDBRANCH  16  17
ENDBRANCH  15  16
ENDBRANCH  13  14
ENDBRANCH  12  13
ENDBRANCH  10  11
ENDBRANCH   9  10
ENDBRANCH   7   8
ENDBRANCH   6   7
ENDBRANCH   5   6
ENDBRANCH   3   5
ENDBRANCH   1   3
TORSDOF 15
ENDMDL
MODEL 14
REMARK VINA RESULT:      -5.3      2.739      5.314
REMARK  15 active torsions:
REMARK  status: ('A' for Active; 'I' for Inactive)
REMARK    1  A    between atoms: O_1  and  C_22 
REMARK    2  A    between atoms: C_3  and  C_4 
REMARK    3  A    between atoms: C_3  and  C_5 
REMARK    4  A    between atoms: C_4  and  C_6 
REMARK    5  A    between atoms: C_5  and  C_7 
REMARK    6  A    between atoms: C_9  and  C_10 
REMARK    7  A    between atoms: C_9  and  C_13 
REMARK    8  A    between atoms: C_10  and  C_14 
REMARK    9  A    between atoms: C_11  and  C_12 
REMARK   10  A    between atoms: C_12  and  C_16 
REMARK   11  A    between atoms: C_13  and  C_22 
REMARK   12  A    between atoms: C_15  and  C_17 
REMARK   13  A    between atoms: C_15  and  C_20 
REMARK   14  A    between atoms: C_18  and  C_19 
REMARK   15  A    between atoms: C_18  and  C_21 
ROOT
HETATM    1  O   UNL     1      33.805  -9.096  -9.251  1.00  0.00    -0.776 OA
HETATM    2  H   UNL     1      34.704  -9.433  -9.128  1.00  0.00     0.167 HD
ENDROOT
BRANCH   1   3
HETATM    3  C   UNL     1      33.384  -8.636 -10.448  1.00  0.00     0.139 C 
HETATM    4  O   UNL     1      33.981  -7.722 -10.998  1.00  0.00    -0.650 OA
BRANCH   3   5
HETATM    5  C   UNL     1      32.172  -9.245 -11.098  1.00  0.00     0.110 C 
BRANCH   5   6
HETATM    6  C   UNL     1      32.336 -10.751 -11.345  1.00  0.00     0.014 C 
BRANCH   6   7
HETATM    7  C   UNL     1      33.631 -11.090 -12.093  1.00  0.00     0.027 C 
BRANCH   7   8
HETATM    8  C   UNL     1      33.301 -11.676 -13.443  1.00  0.00    -0.030 C 
HETATM    9  C   UNL     1      33.343 -11.008 -14.611  1.00  0.00    -0.027 C 
BRANCH   9  10
HETATM   10  C   UNL     1      33.752  -9.566 -14.779  1.00  0.00     0.053 C 
BRANCH  10  11
HETATM   11  C   UNL     1      32.714  -8.790 -15.559  1.00  0.00    -0.027 C 
HETATM   12  C   UNL     1      32.493  -8.823 -16.889  1.00  0.00    -0.027 C 
BRANCH  12  13
HETATM   13  C   UNL     1      33.220  -9.661 -17.910  1.00  0.00     0.053 C 
BRANCH  13  14
HETATM   14  C   UNL     1      32.677  -9.380 -19.291  1.00  0.00    -0.027 C 
HETATM   15  C   UNL     1      31.736 -10.115 -19.917  1.00  0.00    -0.027 C 
BRANCH  15  16
HETATM   16  C   UNL     1      31.089 -11.347 -19.338  1.00  0.00     0.053 C 
BRANCH  16  17
HETATM   17  C   UNL     1      29.651 -11.091 -18.961  1.00  0.00    -0.027 C 
HETATM   18  C   UNL     1      29.187 -11.136 -17.700  1.00  0.00    -0.030 C 
BRANCH  18  19
HETATM   19  C   UNL     1      30.022 -11.459 -16.487  1.00  0.00     0.027 C 
BRANCH  19  20
HETATM   20  C   UNL     1      29.609 -10.555 -15.322  1.00  0.00     0.004 C 
BRANCH  20  21
HETATM   21  C   UNL     1      29.735 -11.285 -13.981  1.00  0.00    -0.000 C 
BRANCH  21  22
HETATM   22  C   UNL     1      28.964 -10.545 -12.881  1.00  0.00    -0.005 C 
HETATM   23  C   UNL     1      27.888 -11.435 -12.267  1.00  0.00     0.005 C 
ENDBRANCH  21  22
ENDBRANCH  20  21
ENDBRANCH  19  20
ENDBRANCH  18  19
ENDBRANCH  16  17
ENDBRANCH  15  16
ENDBRANCH  13  14
ENDBRANCH  12  13
ENDBRANCH  10  11
ENDBRANCH   9  10
ENDBRANCH   7   8
ENDBRANCH   6   7
ENDBRANCH   5   6
ENDBRANCH   3   5
ENDBRANCH   1   3
TORSDOF 15
ENDMDL
MODEL 15
REMARK VINA RESULT:      -5.3      3.577      6.871
REMARK  15 active torsions:
REMARK  status: ('A' for Active; 'I' for Inactive)
REMARK    1  A    between atoms: O_1  and  C_22 
REMARK    2  A    between atoms: C_3  and  C_4 
REMARK    3  A    between atoms: C_3  and  C_5 
REMARK    4  A    between atoms: C_4  and  C_6 
REMARK    5  A    between atoms: C_5  and  C_7 
REMARK    6  A    between atoms: C_9  and  C_10 
REMARK    7  A    between atoms: C_9  and  C_13 
REMARK    8  A    between atoms: C_10  and  C_14 
REMARK    9  A    between atoms: C_11  and  C_12 
REMARK   10  A    between atoms: C_12  and  C_16 
REMARK   11  A    between atoms: C_13  and  C_22 
REMARK   12  A    between atoms: C_15  and  C_17 
REMARK   13  A    between atoms: C_15  and  C_20 
REMARK   14  A    between atoms: C_18  and  C_19 
REMARK   15  A    between atoms: C_18  and  C_21 
ROOT
HETATM    1  O   UNL     1      34.387 -14.324  -7.990  1.00  0.00    -0.776 OA
HETATM    2  H   UNL     1      33.595 -14.044  -7.511  1.00  0.00     0.167 HD
ENDROOT
BRANCH   1   3
HETATM    3  C   UNL     1      34.617 -13.928  -9.260  1.00  0.00     0.139 C 
HETATM    4  O   UNL     1      34.306 -14.653 -10.194  1.00  0.00    -0.650 OA
BRANCH   3   5
HETATM    5  C   UNL     1      35.267 -12.597  -9.522  1.00  0.00     0.110 C 
BRANCH   5   6
HETATM    6  C   UNL     1      34.337 -11.629 -10.267  1.00  0.00     0.014 C 
BRANCH   6   7
HETATM    7  C   UNL     1      33.030 -11.364  -9.509  1.00  0.00     0.027 C 
BRANCH   7   8
HETATM    8  C   UNL     1      32.821  -9.878  -9.361  1.00  0.00    -0.030 C 
HETATM    9  C   UNL     1      32.771  -9.214  -8.191  1.00  0.00    -0.027 C 
BRANCH   9  10
HETATM   10  C   UNL     1      32.938  -9.833  -6.826  1.00  0.00     0.053 C 
BRANCH  10  11
HETATM   11  C   UNL     1      31.699  -9.639  -5.981  1.00  0.00    -0.027 C 
HETATM   12  C   UNL     1      30.556 -10.354  -6.025  1.00  0.00    -0.027 C 
BRANCH  12  13
HETATM   13  C   UNL     1      30.255 -11.531  -6.918  1.00  0.00     0.053 C 
BRANCH  13  14
HETATM   14  C   UNL     1      28.821 -11.469  -7.389  1.00  0.00    -0.027 C 
HETATM   15  C   UNL     1      28.434 -11.240  -8.660  1.00  0.00    -0.027 C 
BRANCH  15  16
HETATM   16  C   UNL     1      29.377 -10.994  -9.809  1.00  0.00     0.053 C 
BRANCH  16  17
HETATM   17  C   UNL     1      28.738 -11.336 -11.132  1.00  0.00    -0.027 C 
HETATM   18  C   UNL     1      29.421 -11.773 -12.204  1.00  0.00    -0.030 C 
BRANCH  18  19
HETATM   19  C   UNL     1      30.915 -11.972 -12.249  1.00  0.00     0.027 C 
BRANCH  19  20
HETATM   20  C   UNL     1      31.416 -11.789 -13.685  1.00  0.00     0.004 C 
BRANCH  20  21
HETATM   21  C   UNL     1      32.628 -10.853 -13.735  1.00  0.00    -0.000 C 
BRANCH  21  22
HETATM   22  C   UNL     1      32.332  -9.537 -13.005  1.00  0.00    -0.005 C 
HETATM   23  C   UNL     1      33.614  -8.753 -12.741  1.00  0.00     0.005 C 
ENDBRANCH  21  22
ENDBRANCH  20  21
ENDBRANCH  19  20
ENDBRANCH  18  19
ENDBRANCH  16  17
ENDBRANCH  15  16
ENDBRANCH  13  14
ENDBRANCH  12  13
ENDBRANCH  10  11
ENDBRANCH   9  10
ENDBRANCH   7   8
ENDBRANCH   6   7
ENDBRANCH   5   6
ENDBRANCH   3   5
ENDBRANCH   1   3
TORSDOF 15
ENDMDL
MODEL 16
REMARK VINA RESULT:      -5.2      3.776      5.053
REMARK  15 active torsions:
REMARK  status: ('A' for Active; 'I' for Inactive)
REMARK    1  A    between atoms: O_1  and  C_22 
REMARK    2  A    between atoms: C_3  and  C_4 
REMARK    3  A    between atoms: C_3  and  C_5 
REMARK    4  A    between atoms: C_4  and  C_6 
REMARK    5  A    between atoms: C_5  and  C_7 
REMARK    6  A    between atoms: C_9  and  C_10 
REMARK    7  A    between atoms: C_9  and  C_13 
REMARK    8  A    between atoms: C_10  and  C_14 
REMARK    9  A    between atoms: C_11  and  C_12 
REMARK   10  A    between atoms: C_12  and  C_16 
REMARK   11  A    between atoms: C_13  and  C_22 
REMARK   12  A    between atoms: C_15  and  C_17 
REMARK   13  A    between atoms: C_15  and  C_20 
REMARK   14  A    between atoms: C_18  and  C_19 
REMARK   15  A    between atoms: C_18  and  C_21 
ROOT
HETATM    1  O   UNL     1      34.945 -15.766 -15.317  1.00  0.00    -0.776 OA
HETATM    2  H   UNL     1      35.667 -16.295 -15.685  1.00  0.00     0.167 HD
ENDROOT
BRANCH   1   3
HETATM    3  C   UNL     1      35.184 -14.620 -14.646  1.00  0.00     0.139 C 
HETATM    4  O   UNL     1      36.326 -14.329 -14.317  1.00  0.00    -0.650 OA
BRANCH   3   5
HETATM    5  C   UNL     1      34.042 -13.708 -14.293  1.00  0.00     0.110 C 
BRANCH   5   6
HETATM    6  C   UNL     1      34.496 -12.256 -14.087  1.00  0.00     0.014 C 
BRANCH   6   7
HETATM    7  C   UNL     1      33.384 -11.241 -14.381  1.00  0.00     0.027 C 
BRANCH   7   8
HETATM    8  C   UNL     1      33.982  -9.869 -14.561  1.00  0.00    -0.030 C 
HETATM    9  C   UNL     1      33.432  -8.869 -15.277  1.00  0.00    -0.027 C 
BRANCH   9  10
HETATM   10  C   UNL     1      32.112  -8.937 -16.002  1.00  0.00     0.053 C 
BRANCH  10  11
HETATM   11  C   UNL     1      32.293  -9.421 -17.424  1.00  0.00    -0.027 C 
HETATM   12  C   UNL     1      31.937 -10.617 -17.935  1.00  0.00    -0.027 C 
BRANCH  12  13
HETATM   13  C   UNL     1      31.256 -11.748 -17.208  1.00  0.00     0.053 C 
BRANCH  13  14
HETATM   14  C   UNL     1      29.768 -11.499 -17.141  1.00  0.00    -0.027 C 
HETATM   15  C   UNL     1      29.083 -11.200 -16.018  1.00  0.00    -0.027 C 
BRANCH  15  16
HETATM   16  C   UNL     1      29.698 -11.086 -14.648  1.00  0.00     0.053 C 
BRANCH  16  17
HETATM   17  C   UNL     1      28.675 -11.308 -13.562  1.00  0.00    -0.027 C 
HETATM   18  C   UNL     1      28.968 -11.341 -12.251  1.00  0.00    -0.030 C 
BRANCH  18  19
HETATM   19  C   UNL     1      30.352 -11.176 -11.674  1.00  0.00     0.027 C 
BRANCH  19  20
HETATM   20  C   UNL     1      30.515  -9.754 -11.127  1.00  0.00     0.004 C 
BRANCH  20  21
HETATM   21  C   UNL     1      31.842  -9.134 -11.578  1.00  0.00    -0.000 C 
BRANCH  21  22
HETATM   22  C   UNL     1      33.027  -9.822 -10.890  1.00  0.00    -0.005 C 
HETATM   23  C   UNL     1      33.682  -8.898  -9.867  1.00  0.00     0.005 C 
ENDBRANCH  21  22
ENDBRANCH  20  21
ENDBRANCH  19  20
ENDBRANCH  18  19
ENDBRANCH  16  17
ENDBRANCH  15  16
ENDBRANCH  13  14
ENDBRANCH  12  13
ENDBRANCH  10  11
ENDBRANCH   9  10
ENDBRANCH   7   8
ENDBRANCH   6   7
ENDBRANCH   5   6
ENDBRANCH   3   5
ENDBRANCH   1   3
TORSDOF 15
ENDMDL
MODEL 17
REMARK VINA RESULT:      -5.2      3.566      4.866
REMARK  15 active torsions:
REMARK  status: ('A' for Active; 'I' for Inactive)
REMARK    1  A    between atoms: O_1  and  C_22 
REMARK    2  A    between atoms: C_3  and  C_4 
REMARK    3  A    between atoms: C_3  and  C_5 
REMARK    4  A    between atoms: C_4  and  C_6 
REMARK    5  A    between atoms: C_5  and  C_7 
REMARK    6  A    between atoms: C_9  and  C_10 
REMARK    7  A    between atoms: C_9  and  C_13 
REMARK    8  A    between atoms: C_10  and  C_14 
REMARK    9  A    between atoms: C_11  and  C_12 
REMARK   10  A    between atoms: C_12  and  C_16 
REMARK   11  A    between atoms: C_13  and  C_22 
REMARK   12  A    between atoms: C_15  and  C_17 
REMARK   13  A    between atoms: C_15  and  C_20 
REMARK   14  A    between atoms: C_18  and  C_19 
REMARK   15  A    between atoms: C_18  and  C_21 
ROOT
HETATM    1  O   UNL     1      33.539 -14.700  -7.840  1.00  0.00    -0.776 OA
HETATM    2  H   UNL     1      32.878 -14.775  -8.543  1.00  0.00     0.167 HD
ENDROOT
BRANCH   1   3
HETATM    3  C   UNL     1      34.463 -13.716  -7.845  1.00  0.00     0.139 C 
HETATM    4  O   UNL     1      35.653 -13.993  -7.846  1.00  0.00    -0.650 OA
BRANCH   3   5
HETATM    5  C   UNL     1      34.023 -12.278  -7.837  1.00  0.00     0.110 C 
BRANCH   5   6
HETATM    6  C   UNL     1      32.717 -12.062  -8.615  1.00  0.00     0.014 C 
BRANCH   6   7
HETATM    7  C   UNL     1      32.325 -10.582  -8.714  1.00  0.00     0.027 C 
BRANCH   7   8
HETATM    8  C   UNL     1      33.505  -9.774  -9.191  1.00  0.00    -0.030 C 
HETATM    9  C   UNL     1      33.506  -8.960 -10.263  1.00  0.00    -0.027 C 
BRANCH   9  10
HETATM   10  C   UNL     1      32.323  -8.693 -11.159  1.00  0.00     0.053 C 
BRANCH  10  11
HETATM   11  C   UNL     1      32.529  -9.294 -12.532  1.00  0.00    -0.027 C 
HETATM   12  C   UNL     1      32.082 -10.484 -12.982  1.00  0.00    -0.027 C 
BRANCH  12  13
HETATM   13  C   UNL     1      31.252 -11.488 -12.223  1.00  0.00     0.053 C 
BRANCH  13  14
HETATM   14  C   UNL     1      29.786 -11.145 -12.347  1.00  0.00    -0.027 C 
HETATM   15  C   UNL     1      28.920 -11.067 -11.316  1.00  0.00    -0.027 C 
BRANCH  15  16
HETATM   16  C   UNL     1      29.280 -11.327  -9.876  1.00  0.00     0.053 C 
BRANCH  16  17
HETATM   17  C   UNL     1      28.067 -11.266  -8.983  1.00  0.00    -0.027 C 
HETATM   18  C   UNL     1      28.112 -11.404  -7.646  1.00  0.00    -0.030 C 
BRANCH  18  19
HETATM   19  C   UNL     1      29.368 -11.649  -6.849  1.00  0.00     0.027 C 
BRANCH  19  20
HETATM   20  C   UNL     1      29.633 -10.455  -5.926  1.00  0.00     0.004 C 
BRANCH  20  21
HETATM   21  C   UNL     1      30.272 -10.904  -4.607  1.00  0.00    -0.000 C 
BRANCH  21  22
HETATM   22  C   UNL     1      31.758 -11.229  -4.803  1.00  0.00    -0.005 C 
HETATM   23  C   UNL     1      32.603  -9.959  -4.817  1.00  0.00     0.005 C 
ENDBRANCH  21  22
ENDBRANCH  20  21
ENDBRANCH  19  20
ENDBRANCH  18  19
ENDBRANCH  16  17
ENDBRANCH  15  16
ENDBRANCH  13  14
ENDBRANCH  12  13
ENDBRANCH  10  11
ENDBRANCH   9  10
ENDBRANCH   7   8
ENDBRANCH   6   7
ENDBRANCH   5   6
ENDBRANCH   3   5
ENDBRANCH   1   3
TORSDOF 15
ENDMDL
MODEL 18
REMARK VINA RESULT:      -5.2      2.189      5.443
REMARK  15 active torsions:
REMARK  status: ('A' for Active; 'I' for Inactive)
REMARK    1  A    between atoms: O_1  and  C_22 
REMARK    2  A    between atoms: C_3  and  C_4 
REMARK    3  A    between atoms: C_3  and  C_5 
REMARK    4  A    between atoms: C_4  and  C_6 
REMARK    5  A    between atoms: C_5  and  C_7 
REMARK    6  A    between atoms: C_9  and  C_10 
REMARK    7  A    between atoms: C_9  and  C_13 
REMARK    8  A    between atoms: C_10  and  C_14 
REMARK    9  A    between atoms: C_11  and  C_12 
REMARK   10  A    between atoms: C_12  and  C_16 
REMARK   11  A    between atoms: C_13  and  C_22 
REMARK   12  A    between atoms: C_15  and  C_17 
REMARK   13  A    between atoms: C_15  and  C_20 
REMARK   14  A    between atoms: C_18  and  C_19 
REMARK   15  A    between atoms: C_18  and  C_21 
ROOT
HETATM    1  O   UNL     1      34.187  -8.874 -17.883  1.00  0.00    -0.776 OA
HETATM    2  H   UNL     1      34.185  -8.469 -18.761  1.00  0.00     0.167 HD
ENDROOT
BRANCH   1   3
HETATM    3  C   UNL     1      33.530  -8.311 -16.847  1.00  0.00     0.139 C 
HETATM    4  O   UNL     1      34.020  -7.360 -16.254  1.00  0.00    -0.650 OA
BRANCH   3   5
HETATM    5  C   UNL     1      32.199  -8.863 -16.416  1.00  0.00     0.110 C 
BRANCH   5   6
HETATM    6  C   UNL     1      32.336 -10.186 -15.649  1.00  0.00     0.014 C 
BRANCH   6   7
HETATM    7  C   UNL     1      31.034 -10.604 -14.953  1.00  0.00     0.027 C 
BRANCH   7   8
HETATM    8  C   UNL     1      31.339 -11.603 -13.865  1.00  0.00    -0.030 C 
HETATM    9  C   UNL     1      30.562 -11.842 -12.791  1.00  0.00    -0.027 C 
BRANCH   9  10
HETATM   10  C   UNL     1      29.243 -11.172 -12.500  1.00  0.00     0.053 C 
BRANCH  10  11
HETATM   11  C   UNL     1      29.395 -10.094 -11.450  1.00  0.00    -0.027 C 
HETATM   12  C   UNL     1      29.194 -10.210 -10.121  1.00  0.00    -0.027 C 
BRANCH  12  13
HETATM   13  C   UNL     1      28.788 -11.451  -9.369  1.00  0.00     0.053 C 
BRANCH  13  14
HETATM   14  C   UNL     1      28.523 -11.115  -7.920  1.00  0.00    -0.027 C 
HETATM   15  C   UNL     1      29.374 -11.355  -6.902  1.00  0.00    -0.027 C 
BRANCH  15  16
HETATM   16  C   UNL     1      30.720 -12.015  -7.052  1.00  0.00     0.053 C 
BRANCH  16  17
HETATM   17  C   UNL     1      31.769 -11.328  -6.213  1.00  0.00    -0.027 C 
HETATM   18  C   UNL     1      32.354 -10.165  -6.549  1.00  0.00    -0.030 C 
BRANCH  18  19
HETATM   19  C   UNL     1      32.062  -9.388  -7.808  1.00  0.00     0.027 C 
BRANCH  19  20
HETATM   20  C   UNL     1      33.073  -9.769  -8.895  1.00  0.00     0.004 C 
BRANCH  20  21
HETATM   21  C   UNL     1      32.857  -8.943 -10.167  1.00  0.00    -0.000 C 
BRANCH  21  22
HETATM   22  C   UNL     1      33.420  -9.671 -11.393  1.00  0.00    -0.005 C 
HETATM   23  C   UNL     1      33.451  -8.755 -12.613  1.00  0.00     0.005 C 
ENDBRANCH  21  22
ENDBRANCH  20  21
ENDBRANCH  19  20
ENDBRANCH  18  19
ENDBRANCH  16  17
ENDBRANCH  15  16
ENDBRANCH  13  14
ENDBRANCH  12  13
ENDBRANCH  10  11
ENDBRANCH   9  10
ENDBRANCH   7   8
ENDBRANCH   6   7
ENDBRANCH   5   6
ENDBRANCH   3   5
ENDBRANCH   1   3
TORSDOF 15
ENDMDL
MODEL 19
REMARK VINA RESULT:      -5.2      3.504      4.989
REMARK  15 active torsions:
REMARK  status: ('A' for Active; 'I' for Inactive)
REMARK    1  A    between atoms: O_1  and  C_22 
REMARK    2  A    between atoms: C_3  and  C_4 
REMARK    3  A    between atoms: C_3  and  C_5 
REMARK    4  A    between atoms: C_4  and  C_6 
REMARK    5  A    between atoms: C_5  and  C_7 
REMARK    6  A    between atoms: C_9  and  C_10 
REMARK    7  A    between atoms: C_9  and  C_13 
REMARK    8  A    between atoms: C_10  and  C_14 
REMARK    9  A    between atoms: C_11  and  C_12 
REMARK   10  A    between atoms: C_12  and  C_16 
REMARK   11  A    between atoms: C_13  and  C_22 
REMARK   12  A    between atoms: C_15  and  C_17 
REMARK   13  A    between atoms: C_15  and  C_20 
REMARK   14  A    between atoms: C_18  and  C_19 
REMARK   15  A    between atoms: C_18  and  C_21 
ROOT
HETATM    1  O   UNL     1      34.187 -11.825 -19.275  1.00  0.00    -0.776 OA
HETATM    2  H   UNL     1      33.969 -12.549 -18.671  1.00  0.00     0.167 HD
ENDROOT
BRANCH   1   3
HETATM    3  C   UNL     1      34.542 -10.607 -18.812  1.00  0.00     0.139 C 
HETATM    4  O   UNL     1      35.667 -10.424 -18.370  1.00  0.00    -0.650 OA
BRANCH   3   5
HETATM    5  C   UNL     1      33.546  -9.481 -18.832  1.00  0.00     0.110 C 
BRANCH   5   6
HETATM    6  C   UNL     1      33.758  -8.494 -17.675  1.00  0.00     0.014 C 
BRANCH   6   7
HETATM    7  C   UNL     1      32.967  -8.878 -16.417  1.00  0.00     0.027 C 
BRANCH   7   8
HETATM    8  C   UNL     1      33.875  -9.589 -15.445  1.00  0.00    -0.030 C 
HETATM    9  C   UNL     1      33.582 -10.739 -14.809  1.00  0.00    -0.027 C 
BRANCH   9  10
HETATM   10  C   UNL     1      32.309 -11.530 -14.973  1.00  0.00     0.053 C 
BRANCH  10  11
HETATM   11  C   UNL     1      32.273 -12.240 -16.309  1.00  0.00    -0.027 C 
HETATM   12  C   UNL     1      31.383 -12.065 -17.307  1.00  0.00    -0.027 C 
BRANCH  12  13
HETATM   13  C   UNL     1      30.224 -11.102 -17.331  1.00  0.00     0.053 C 
BRANCH  13  14
HETATM   14  C   UNL     1      28.966 -11.796 -16.862  1.00  0.00    -0.027 C 
HETATM   15  C   UNL     1      28.447 -11.700 -15.621  1.00  0.00    -0.027 C 
BRANCH  15  16
HETATM   16  C   UNL     1      29.054 -10.896 -14.501  1.00  0.00     0.053 C 
BRANCH  16  17
HETATM   17  C   UNL     1      28.362 -11.166 -13.189  1.00  0.00    -0.027 C 
HETATM   18  C   UNL     1      29.008 -11.475 -12.051  1.00  0.00    -0.030 C 
BRANCH  18  19
HETATM   19  C   UNL     1      30.504 -11.608 -11.920  1.00  0.00     0.027 C 
BRANCH  19  20
HETATM   20  C   UNL     1      31.062 -10.407 -11.148  1.00  0.00     0.004 C 
BRANCH  20  21
HETATM   21  C   UNL     1      31.798  -9.441 -12.082  1.00  0.00    -0.000 C 
BRANCH  21  22
HETATM   22  C   UNL     1      32.694  -8.486 -11.283  1.00  0.00    -0.005 C 
HETATM   23  C   UNL     1      33.539  -9.245 -10.265  1.00  0.00     0.005 C 
ENDBRANCH  21  22
ENDBRANCH  20  21
ENDBRANCH  19  20
ENDBRANCH  18  19
ENDBRANCH  16  17
ENDBRANCH  15  16
ENDBRANCH  13  14
ENDBRANCH  12  13
ENDBRANCH  10  11
ENDBRANCH   9  10
ENDBRANCH   7   8
ENDBRANCH   6   7
ENDBRANCH   5   6
ENDBRANCH   3   5
ENDBRANCH   1   3
TORSDOF 15
ENDMDL
MODEL 20
REMARK VINA RESULT:      -5.2      4.248      6.520
REMARK  15 active torsions:
REMARK  status: ('A' for Active; 'I' for Inactive)
REMARK    1  A    between atoms: O_1  and  C_22 
REMARK    2  A    between atoms: C_3  and  C_4 
REMARK    3  A    between atoms: C_3  and  C_5 
REMARK    4  A    between atoms: C_4  and  C_6 
REMARK    5  A    between atoms: C_5  and  C_7 
REMARK    6  A    between atoms: C_9  and  C_10 
REMARK    7  A    between atoms: C_9  and  C_13 
REMARK    8  A    between atoms: C_10  and  C_14 
REMARK    9  A    between atoms: C_11  and  C_12 
REMARK   10  A    between atoms: C_12  and  C_16 
REMARK   11  A    between atoms: C_13  and  C_22 
REMARK   12  A    between atoms: C_15  and  C_17 
REMARK   13  A    between atoms: C_15  and  C_20 
REMARK   14  A    between atoms: C_18  and  C_19 
REMARK   15  A    between atoms: C_18  and  C_21 
ROOT
HETATM    1  O   UNL     1      27.196 -11.577 -12.524  1.00  0.00    -0.776 OA
HETATM    2  H   UNL     1      27.046 -11.877 -11.617  1.00  0.00     0.167 HD
ENDROOT
BRANCH   1   3
HETATM    3  C   UNL     1      28.349 -10.974 -12.884  1.00  0.00     0.139 C 
HETATM    4  O   UNL     1      28.790 -11.119 -14.015  1.00  0.00    -0.650 OA
BRANCH   3   5
HETATM    5  C   UNL     1      29.097 -10.134 -11.885  1.00  0.00     0.110 C 
BRANCH   5   6
HETATM    6  C   UNL     1      29.216 -10.820 -10.518  1.00  0.00     0.014 C 
BRANCH   6   7
HETATM    7  C   UNL     1      30.633 -11.339 -10.238  1.00  0.00     0.027 C 
BRANCH   7   8
HETATM    8  C   UNL     1      31.163 -10.710  -8.974  1.00  0.00    -0.030 C 
HETATM    9  C   UNL     1      32.382 -10.156  -8.834  1.00  0.00    -0.027 C 
BRANCH   9  10
HETATM   10  C   UNL     1      33.421 -10.043  -9.922  1.00  0.00     0.053 C 
BRANCH  10  11
HETATM   11  C   UNL     1      33.182  -8.822 -10.783  1.00  0.00    -0.027 C 
HETATM   12  C   UNL     1      33.263  -8.738 -12.127  1.00  0.00    -0.027 C 
BRANCH  12  13
HETATM   13  C   UNL     1      33.592  -9.852 -13.088  1.00  0.00     0.053 C 
BRANCH  13  14
HETATM   14  C   UNL     1      32.321 -10.501 -13.581  1.00  0.00    -0.027 C 
HETATM   15  C   UNL     1      32.122 -11.831 -13.688  1.00  0.00    -0.027 C 
BRANCH  15  16
HETATM   16  C   UNL     1      33.150 -12.878 -13.345  1.00  0.00     0.053 C 
BRANCH  16  17
HETATM   17  C   UNL     1      33.105 -13.239 -11.881  1.00  0.00    -0.027 C 
HETATM   18  C   UNL     1      34.192 -13.530 -11.146  1.00  0.00    -0.030 C 
BRANCH  18  19
HETATM   19  C   UNL     1      35.605 -13.551 -11.672  1.00  0.00     0.027 C 
BRANCH  19  20
HETATM   20  C   UNL     1      36.302 -12.231 -11.328  1.00  0.00     0.004 C 
BRANCH  20  21
HETATM   21  C   UNL     1      36.410 -12.039  -9.812  1.00  0.00    -0.000 C 
BRANCH  21  22
HETATM   22  C   UNL     1      37.846 -12.284  -9.331  1.00  0.00    -0.005 C 
HETATM   23  C   UNL     1      37.952 -13.596  -8.560  1.00  0.00     0.005 C 
ENDBRANCH  21  22
ENDBRANCH  20  21
ENDBRANCH  19  20
ENDBRANCH  18  19
ENDBRANCH  16  17
ENDBRANCH  15  16
ENDBRANCH  13  14
ENDBRANCH  12  13
ENDBRANCH  10  11
ENDBRANCH   9  10
ENDBRANCH   7   8
ENDBRANCH   6   7
ENDBRANCH   5   6
ENDBRANCH   3   5
ENDBRANCH   1   3
TORSDOF 15
ENDMDL
