MODEL 1
REMARK VINA RESULT:      -8.4      0.000      0.000
REMARK  2 active torsions:
REMARK  status: ('A' for Active; 'I' for Inactive)
REMARK    1  A    between atoms: N_3  and  C_15 
REMARK    2  A    between atoms: C_5  and  C_7 
ROOT
HETATM    1  S   UNL     1      30.387   6.326 -14.237  1.00  0.00    -0.069 SA
HETATM    2  N   UNL     1      29.935   8.819 -14.279  1.00  0.00    -0.344 N 
HETATM    3  C   UNL     1      29.969   8.384 -15.580  1.00  0.00     0.052 A 
HETATM    4  C   UNL     1      30.125   7.780 -13.396  1.00  0.00     0.087 A 
HETATM    5  C   UNL     1      30.208   7.028 -15.738  1.00  0.00     0.034 A 
HETATM    6  C   UNL     1      29.800   9.187 -16.721  1.00  0.00     0.031 A 
HETATM    7  C   UNL     1      30.284   6.417 -16.987  1.00  0.00     0.028 A 
HETATM    8  C   UNL     1      29.781  10.245 -13.957  1.00  0.00     0.157 C 
HETATM    9  C   UNL     1      30.110   7.213 -18.134  1.00  0.00    -0.061 A 
HETATM   10  C   UNL     1      29.869   8.596 -17.993  1.00  0.00     0.009 A 
HETATM   11  C   UNL     1      30.181   6.608 -19.504  1.00  0.00     0.048 C 
ENDROOT
BRANCH   4  12
HETATM   12  C   UNL     1      30.088   7.813 -11.899  1.00  0.00    -0.002 A 
HETATM   13  C   UNL     1      29.757   8.967 -11.166  1.00  0.00     0.016 A 
HETATM   14  C   UNL     1      29.713   8.947  -9.769  1.00  0.00     0.030 A 
HETATM   15  C   UNL     1      29.990   7.769  -9.044  1.00  0.00     0.029 A 
HETATM   16  C   UNL     1      30.301   6.608  -9.784  1.00  0.00     0.030 A 
HETATM   17  C   UNL     1      30.339   6.630 -11.180  1.00  0.00     0.016 A 
BRANCH  15  18
HETATM   18  N   UNL     1      29.947   7.748  -7.601  1.00  0.00    -0.390 N 
HETATM   19  C   UNL     1      29.841   8.988  -6.844  1.00  0.00     0.149 C 
HETATM   20  C   UNL     1      30.008   6.487  -6.875  1.00  0.00     0.149 C 
ENDBRANCH  15  18
ENDBRANCH   4  12
TORSDOF 2
ENDMDL
MODEL 2
REMARK VINA RESULT:      -8.4      2.012      3.563
REMARK  2 active torsions:
REMARK  status: ('A' for Active; 'I' for Inactive)
REMARK    1  A    between atoms: N_3  and  C_15 
REMARK    2  A    between atoms: C_5  and  C_7 
ROOT
HETATM    1  S   UNL     1      30.307   6.292 -17.800  1.00  0.00    -0.069 SA
HETATM    2  N   UNL     1      29.979   8.804 -17.840  1.00  0.00    -0.344 N 
HETATM    3  C   UNL     1      29.972   8.367 -19.141  1.00  0.00     0.052 A 
HETATM    4  C   UNL     1      30.130   7.758 -16.958  1.00  0.00     0.087 A 
HETATM    5  C   UNL     1      30.141   7.000 -19.300  1.00  0.00     0.034 A 
HETATM    6  C   UNL     1      29.826   9.176 -20.281  1.00  0.00     0.031 A 
HETATM    7  C   UNL     1      30.168   6.385 -20.549  1.00  0.00     0.028 A 
HETATM    8  C   UNL     1      29.901  10.236 -17.518  1.00  0.00     0.157 C 
HETATM    9  C   UNL     1      30.016   7.187 -21.694  1.00  0.00    -0.061 A 
HETATM   10  C   UNL     1      29.847   8.581 -21.552  1.00  0.00     0.009 A 
HETATM   11  C   UNL     1      30.036   6.578 -23.064  1.00  0.00     0.048 C 
ENDROOT
BRANCH   4  12
HETATM   12  C   UNL     1      30.118   7.794 -15.461  1.00  0.00    -0.002 A 
HETATM   13  C   UNL     1      29.866   8.967 -14.725  1.00  0.00     0.016 A 
HETATM   14  C   UNL     1      29.842   8.951 -13.327  1.00  0.00     0.030 A 
HETATM   15  C   UNL     1      30.060   7.759 -12.605  1.00  0.00     0.029 A 
HETATM   16  C   UNL     1      30.289   6.581 -13.347  1.00  0.00     0.030 A 
HETATM   17  C   UNL     1      30.308   6.599 -14.744  1.00  0.00     0.016 A 
BRANCH  15  18
HETATM   18  N   UNL     1      30.036   7.742 -11.161  1.00  0.00    -0.390 N 
HETATM   19  C   UNL     1      29.713   8.947 -10.410  1.00  0.00     0.149 C 
HETATM   20  C   UNL     1      30.336   6.519 -10.428  1.00  0.00     0.149 C 
ENDBRANCH  15  18
ENDBRANCH   4  12
TORSDOF 2
ENDMDL
MODEL 3
REMARK VINA RESULT:      -8.3      1.439      7.691
REMARK  2 active torsions:
REMARK  status: ('A' for Active; 'I' for Inactive)
REMARK    1  A    between atoms: N_3  and  C_15 
REMARK    2  A    between atoms: C_5  and  C_7 
ROOT
HETATM    1  S   UNL     1      29.978   6.294 -12.436  1.00  0.00    -0.069 SA
HETATM    2  N   UNL     1      29.949   8.828 -12.417  1.00  0.00    -0.344 N 
HETATM    3  C   UNL     1      30.006   8.406 -11.112  1.00  0.00     0.052 A 
HETATM    4  C   UNL     1      29.955   7.763 -13.290  1.00  0.00     0.087 A 
HETATM    5  C   UNL     1      30.030   7.031 -10.941  1.00  0.00     0.034 A 
HETATM    6  C   UNL     1      30.026   9.237  -9.979  1.00  0.00     0.031 A 
HETATM    7  C   UNL     1      30.078   6.428  -9.687  1.00  0.00     0.028 A 
HETATM    8  C   UNL     1      29.828  10.253 -12.751  1.00  0.00     0.157 C 
HETATM    9  C   UNL     1      30.105   7.253  -8.548  1.00  0.00    -0.061 A 
HETATM   10  C   UNL     1      30.077   8.656  -8.702  1.00  0.00     0.009 A 
HETATM   11  C   UNL     1      30.158   6.658  -7.173  1.00  0.00     0.048 C 
ENDROOT
BRANCH   4  12
HETATM   12  C   UNL     1      29.976   7.789 -14.788  1.00  0.00    -0.002 A 
HETATM   13  C   UNL     1      29.782   8.963 -15.536  1.00  0.00     0.016 A 
HETATM   14  C   UNL     1      29.832   8.946 -16.933  1.00  0.00     0.030 A 
HETATM   15  C   UNL     1      30.088   7.753 -17.642  1.00  0.00     0.029 A 
HETATM   16  C   UNL     1      30.304   6.581 -16.886  1.00  0.00     0.030 A 
HETATM   17  C   UNL     1      30.258   6.603 -15.490  1.00  0.00     0.016 A 
BRANCH  15  18
HETATM   18  N   UNL     1      30.138   7.733 -19.085  1.00  0.00    -0.390 N 
HETATM   19  C   UNL     1      30.562   6.534 -19.796  1.00  0.00     0.149 C 
HETATM   20  C   UNL     1      29.768   8.912 -19.857  1.00  0.00     0.149 C 
ENDBRANCH  15  18
ENDBRANCH   4  12
TORSDOF 2
ENDMDL
MODEL 4
REMARK VINA RESULT:      -8.2      3.126      9.269
REMARK  2 active torsions:
REMARK  status: ('A' for Active; 'I' for Inactive)
REMARK    1  A    between atoms: N_3  and  C_15 
REMARK    2  A    between atoms: C_5  and  C_7 
ROOT
HETATM    1  S   UNL     1      30.012   6.299 -17.034  1.00  0.00    -0.069 SA
HETATM    2  N   UNL     1      29.877   8.829 -17.005  1.00  0.00    -0.344 N 
HETATM    3  C   UNL     1      29.950   8.405 -15.702  1.00  0.00     0.052 A 
HETATM    4  C   UNL     1      29.929   7.769 -17.882  1.00  0.00     0.087 A 
HETATM    5  C   UNL     1      30.031   7.032 -15.536  1.00  0.00     0.034 A 
HETATM    6  C   UNL     1      29.934   9.232 -14.565  1.00  0.00     0.031 A 
HETATM    7  C   UNL     1      30.103   6.426 -14.284  1.00  0.00     0.028 A 
HETATM    8  C   UNL     1      29.697  10.250 -17.334  1.00  0.00     0.157 C 
HETATM    9  C   UNL     1      30.093   7.248 -13.142  1.00  0.00    -0.061 A 
HETATM   10  C   UNL     1      30.007   8.648 -13.290  1.00  0.00     0.009 A 
HETATM   11  C   UNL     1      30.169   6.650 -11.769  1.00  0.00     0.048 C 
ENDROOT
BRANCH   4  12
HETATM   12  C   UNL     1      29.951   7.802 -19.380  1.00  0.00    -0.002 A 
HETATM   13  C   UNL     1      29.731   8.975 -20.124  1.00  0.00     0.016 A 
HETATM   14  C   UNL     1      29.782   8.964 -21.521  1.00  0.00     0.030 A 
HETATM   15  C   UNL     1      30.066   7.780 -22.234  1.00  0.00     0.029 A 
HETATM   16  C   UNL     1      30.308   6.610 -21.483  1.00  0.00     0.030 A 
HETATM   17  C   UNL     1      30.260   6.626 -20.087  1.00  0.00     0.016 A 
BRANCH  15  18
HETATM   18  N   UNL     1      30.118   7.768 -23.677  1.00  0.00    -0.390 N 
HETATM   19  C   UNL     1      30.465   6.549 -24.396  1.00  0.00     0.149 C 
HETATM   20  C   UNL     1      29.827   8.973 -24.441  1.00  0.00     0.149 C 
ENDBRANCH  15  18
ENDBRANCH   4  12
TORSDOF 2
ENDMDL
MODEL 5
REMARK VINA RESULT:      -8.0      2.013      8.132
REMARK  2 active torsions:
REMARK  status: ('A' for Active; 'I' for Inactive)
REMARK    1  A    between atoms: N_3  and  C_15 
REMARK    2  A    between atoms: C_5  and  C_7 
ROOT
HETATM    1  S   UNL     1      29.929  10.187 -13.685  1.00  0.00    -0.069 SA
HETATM    2  N   UNL     1      30.127   7.687 -13.319  1.00  0.00    -0.344 N 
HETATM    3  C   UNL     1      30.025   8.278 -12.085  1.00  0.00     0.052 A 
HETATM    4  C   UNL     1      30.061   8.620 -14.330  1.00  0.00     0.087 A 
HETATM    5  C   UNL     1      29.908   9.659 -12.104  1.00  0.00     0.034 A 
HETATM    6  C   UNL     1      30.047   7.610 -10.848  1.00  0.00     0.031 A 
HETATM    7  C   UNL     1      29.803  10.422 -10.944  1.00  0.00     0.028 A 
HETATM    8  C   UNL     1      30.347   6.241 -13.455  1.00  0.00     0.157 C 
HETATM    9  C   UNL     1      29.818   9.760  -9.703  1.00  0.00    -0.061 A 
HETATM   10  C   UNL     1      29.941   8.355  -9.663  1.00  0.00     0.009 A 
HETATM   11  C   UNL     1      29.707  10.532  -8.422  1.00  0.00     0.048 C 
ENDROOT
BRANCH   4  12
HETATM   12  C   UNL     1      30.061   8.389 -15.810  1.00  0.00    -0.002 A 
HETATM   13  C   UNL     1      29.965   7.110 -16.386  1.00  0.00     0.016 A 
HETATM   14  C   UNL     1      29.946   6.942 -17.774  1.00  0.00     0.030 A 
HETATM   15  C   UNL     1      30.012   8.048 -18.646  1.00  0.00     0.029 A 
HETATM   16  C   UNL     1      30.085   9.332 -18.064  1.00  0.00     0.030 A 
HETATM   17  C   UNL     1      30.099   9.496 -16.677  1.00  0.00     0.016 A 
BRANCH  15  18
HETATM   18  N   UNL     1      29.993   7.876 -20.080  1.00  0.00    -0.390 N 
HETATM   19  C   UNL     1      30.347   6.595 -20.677  1.00  0.00     0.149 C 
HETATM   20  C   UNL     1      29.622   8.979 -20.955  1.00  0.00     0.149 C 
ENDBRANCH  15  18
ENDBRANCH   4  12
TORSDOF 2
ENDMDL
MODEL 6
REMARK VINA RESULT:      -8.0      1.144      1.807
REMARK  2 active torsions:
REMARK  status: ('A' for Active; 'I' for Inactive)
REMARK    1  A    between atoms: N_3  and  C_15 
REMARK    2  A    between atoms: C_5  and  C_7 
ROOT
HETATM    1  S   UNL     1      30.249   6.277 -12.840  1.00  0.00    -0.069 SA
HETATM    2  N   UNL     1      29.952   8.794 -12.802  1.00  0.00    -0.344 N 
HETATM    3  C   UNL     1      29.952   8.398 -14.116  1.00  0.00     0.052 A 
HETATM    4  C   UNL     1      30.081   7.717 -11.953  1.00  0.00     0.087 A 
HETATM    5  C   UNL     1      30.106   7.036 -14.318  1.00  0.00     0.034 A 
HETATM    6  C   UNL     1      29.828   9.246 -15.230  1.00  0.00     0.031 A 
HETATM    7  C   UNL     1      30.138   6.461 -15.586  1.00  0.00     0.028 A 
HETATM    8  C   UNL     1      29.888  10.215 -12.434  1.00  0.00     0.157 C 
HETATM    9  C   UNL     1      30.008   7.303 -16.706  1.00  0.00    -0.061 A 
HETATM   10  C   UNL     1      29.854   8.693 -16.520  1.00  0.00     0.009 A 
HETATM   11  C   UNL     1      30.034   6.738 -18.094  1.00  0.00     0.048 C 
ENDROOT
BRANCH   4  12
HETATM   12  C   UNL     1      30.055   7.705 -10.455  1.00  0.00    -0.002 A 
HETATM   13  C   UNL     1      30.180   6.527  -9.697  1.00  0.00     0.016 A 
HETATM   14  C   UNL     1      30.172   6.564  -8.299  1.00  0.00     0.030 A 
HETATM   15  C   UNL     1      30.048   7.783  -7.600  1.00  0.00     0.029 A 
HETATM   16  C   UNL     1      29.945   8.964  -8.364  1.00  0.00     0.030 A 
HETATM   17  C   UNL     1      29.957   8.924  -9.760  1.00  0.00     0.016 A 
BRANCH  15  18
HETATM   18  N   UNL     1      30.039   7.822  -6.156  1.00  0.00    -0.390 N 
HETATM   19  C   UNL     1      29.682   9.045  -5.449  1.00  0.00     0.149 C 
HETATM   20  C   UNL     1      30.386   6.640  -5.379  1.00  0.00     0.149 C 
ENDBRANCH  15  18
ENDBRANCH   4  12
TORSDOF 2
ENDMDL
MODEL 7
REMARK VINA RESULT:      -7.9      1.891      3.233
REMARK  2 active torsions:
REMARK  status: ('A' for Active; 'I' for Inactive)
REMARK    1  A    between atoms: N_3  and  C_15 
REMARK    2  A    between atoms: C_5  and  C_7 
ROOT
HETATM    1  S   UNL     1      29.815  10.172 -16.286  1.00  0.00    -0.069 SA
HETATM    2  N   UNL     1      30.014   7.674 -16.666  1.00  0.00    -0.344 N 
HETATM    3  C   UNL     1      30.021   8.280 -17.897  1.00  0.00     0.052 A 
HETATM    4  C   UNL     1      29.932   8.600 -15.650  1.00  0.00     0.087 A 
HETATM    5  C   UNL     1      29.919   9.662 -17.871  1.00  0.00     0.034 A 
HETATM    6  C   UNL     1      30.105   7.624 -19.137  1.00  0.00     0.031 A 
HETATM    7  C   UNL     1      29.901  10.439 -19.026  1.00  0.00     0.028 A 
HETATM    8  C   UNL     1      30.025   6.210 -16.538  1.00  0.00     0.157 C 
HETATM    9  C   UNL     1      29.991   9.789 -20.271  1.00  0.00    -0.061 A 
HETATM   10  C   UNL     1      30.092   8.383 -20.318  1.00  0.00     0.009 A 
HETATM   11  C   UNL     1      29.978  10.576 -21.547  1.00  0.00     0.048 C 
ENDROOT
BRANCH   4  12
HETATM   12  C   UNL     1      29.969   8.364 -14.171  1.00  0.00    -0.002 A 
HETATM   13  C   UNL     1      30.007   7.079 -13.601  1.00  0.00     0.016 A 
HETATM   14  C   UNL     1      30.063   6.905 -12.215  1.00  0.00     0.030 A 
HETATM   15  C   UNL     1      30.094   8.011 -11.339  1.00  0.00     0.029 A 
HETATM   16  C   UNL     1      30.079   9.298 -11.916  1.00  0.00     0.030 A 
HETATM   17  C   UNL     1      30.027   9.468 -13.301  1.00  0.00     0.016 A 
BRANCH  15  18
HETATM   18  N   UNL     1      30.151   7.832  -9.907  1.00  0.00    -0.390 N 
HETATM   19  C   UNL     1      29.972   8.966  -9.011  1.00  0.00     0.149 C 
HETATM   20  C   UNL     1      30.391   6.515  -9.332  1.00  0.00     0.149 C 
ENDBRANCH  15  18
ENDBRANCH   4  12
TORSDOF 2
ENDMDL
MODEL 8
REMARK VINA RESULT:      -7.8      1.677      8.021
REMARK  2 active torsions:
REMARK  status: ('A' for Active; 'I' for Inactive)
REMARK    1  A    between atoms: N_3  and  C_15 
REMARK    2  A    between atoms: C_5  and  C_7 
ROOT
HETATM    1  S   UNL     1      30.242   6.350  -9.501  1.00  0.00    -0.069 SA
HETATM    2  N   UNL     1      29.821   8.847  -9.414  1.00  0.00    -0.344 N 
HETATM    3  C   UNL     1      29.955   8.406  -8.121  1.00  0.00     0.052 A 
HETATM    4  C   UNL     1      29.983   7.819 -10.315  1.00  0.00     0.087 A 
HETATM    5  C   UNL     1      30.193   7.047  -7.987  1.00  0.00     0.034 A 
HETATM    6  C   UNL     1      29.856   9.201  -6.966  1.00  0.00     0.031 A 
HETATM    7  C   UNL     1      30.346   6.427  -6.750  1.00  0.00     0.028 A 
HETATM    8  C   UNL     1      29.477  10.245  -9.710  1.00  0.00     0.157 C 
HETATM    9  C   UNL     1      30.255   7.218  -5.589  1.00  0.00    -0.061 A 
HETATM   10  C   UNL     1      30.009   8.602  -5.705  1.00  0.00     0.009 A 
HETATM   11  C   UNL     1      30.413   6.603  -4.231  1.00  0.00     0.048 C 
ENDROOT
BRANCH   4  12
HETATM   12  C   UNL     1      29.986   7.885 -11.812  1.00  0.00    -0.002 A 
HETATM   13  C   UNL     1      30.050   9.096 -12.524  1.00  0.00     0.016 A 
HETATM   14  C   UNL     1      30.072   9.111 -13.922  1.00  0.00     0.030 A 
HETATM   15  C   UNL     1      30.042   7.914 -14.668  1.00  0.00     0.029 A 
HETATM   16  C   UNL     1      30.001   6.701 -13.949  1.00  0.00     0.030 A 
HETATM   17  C   UNL     1      29.983   6.689 -12.552  1.00  0.00     0.016 A 
BRANCH  15  18
HETATM   18  N   UNL     1      30.064   7.929 -16.112  1.00  0.00    -0.390 N 
HETATM   19  C   UNL     1      30.076   6.682 -16.866  1.00  0.00     0.149 C 
HETATM   20  C   UNL     1      30.076   9.189 -16.841  1.00  0.00     0.149 C 
ENDBRANCH  15  18
ENDBRANCH   4  12
TORSDOF 2
ENDMDL
MODEL 9
REMARK VINA RESULT:      -7.8      2.580      4.896
REMARK  2 active torsions:
REMARK  status: ('A' for Active; 'I' for Inactive)
REMARK    1  A    between atoms: N_3  and  C_15 
REMARK    2  A    between atoms: C_5  and  C_7 
ROOT
HETATM    1  S   UNL     1      29.820   9.878 -19.008  1.00  0.00    -0.069 SA
HETATM    2  N   UNL     1      30.072   7.411 -18.489  1.00  0.00    -0.344 N 
HETATM    3  C   UNL     1      30.070   7.547 -19.854  1.00  0.00     0.052 A 
HETATM    4  C   UNL     1      29.968   8.632 -17.862  1.00  0.00     0.087 A 
HETATM    5  C   UNL     1      29.939   8.848 -20.313  1.00  0.00     0.034 A 
HETATM    6  C   UNL     1      30.171   6.500 -20.786  1.00  0.00     0.031 A 
HETATM    7  C   UNL     1      29.909   9.170 -21.667  1.00  0.00     0.028 A 
HETATM    8  C   UNL     1      30.113   6.085 -17.856  1.00  0.00     0.157 C 
HETATM    9  C   UNL     1      30.016   8.128 -22.606  1.00  0.00    -0.061 A 
HETATM   10  C   UNL     1      30.146   6.796 -22.158  1.00  0.00     0.009 A 
HETATM   11  C   UNL     1      29.991   8.417 -24.077  1.00  0.00     0.048 C 
ENDROOT
BRANCH   4  12
HETATM   12  C   UNL     1      30.005   8.931 -16.394  1.00  0.00    -0.002 A 
HETATM   13  C   UNL     1      29.842  10.226 -15.871  1.00  0.00     0.016 A 
HETATM   14  C   UNL     1      29.862  10.457 -14.492  1.00  0.00     0.030 A 
HETATM   15  C   UNL     1      30.035   9.398 -13.576  1.00  0.00     0.029 A 
HETATM   16  C   UNL     1      30.175   8.097 -14.103  1.00  0.00     0.030 A 
HETATM   17  C   UNL     1      30.151   7.870 -15.481  1.00  0.00     0.016 A 
BRANCH  15  18
HETATM   18  N   UNL     1      30.056   9.635 -12.151  1.00  0.00    -0.390 N 
HETATM   19  C   UNL     1      30.159  10.990 -11.626  1.00  0.00     0.149 C 
HETATM   20  C   UNL     1      29.977   8.525 -11.213  1.00  0.00     0.149 C 
ENDBRANCH  15  18
ENDBRANCH   4  12
TORSDOF 2
ENDMDL
MODEL 10
REMARK VINA RESULT:      -7.7      1.440      2.360
REMARK  2 active torsions:
REMARK  status: ('A' for Active; 'I' for Inactive)
REMARK    1  A    between atoms: N_3  and  C_15 
REMARK    2  A    between atoms: C_5  and  C_7 
ROOT
HETATM    1  S   UNL     1      29.802   9.804 -14.015  1.00  0.00    -0.069 SA
HETATM    2  N   UNL     1      30.040   7.319 -13.576  1.00  0.00    -0.344 N 
HETATM    3  C   UNL     1      30.054   7.501 -14.936  1.00  0.00     0.052 A 
HETATM    4  C   UNL     1      29.933   8.519 -12.910  1.00  0.00     0.087 A 
HETATM    5  C   UNL     1      29.932   8.817 -15.353  1.00  0.00     0.034 A 
HETATM    6  C   UNL     1      30.163   6.485 -15.901  1.00  0.00     0.031 A 
HETATM    7  C   UNL     1      29.918   9.185 -16.696  1.00  0.00     0.028 A 
HETATM    8  C   UNL     1      30.070   5.973 -12.987  1.00  0.00     0.157 C 
HETATM    9  C   UNL     1      30.033   8.174 -17.668  1.00  0.00    -0.061 A 
HETATM   10  C   UNL     1      30.154   6.827 -17.263  1.00  0.00     0.009 A 
HETATM   11  C   UNL     1      30.024   8.511 -19.128  1.00  0.00     0.048 C 
ENDROOT
BRANCH   4  12
HETATM   12  C   UNL     1      29.955   8.768 -11.432  1.00  0.00    -0.002 A 
HETATM   13  C   UNL     1      30.195   7.754 -10.488  1.00  0.00     0.016 A 
HETATM   14  C   UNL     1      30.229   8.035  -9.119  1.00  0.00     0.030 A 
HETATM   15  C   UNL     1      30.033   9.345  -8.636  1.00  0.00     0.029 A 
HETATM   16  C   UNL     1      29.814  10.364  -9.587  1.00  0.00     0.030 A 
HETATM   17  C   UNL     1      29.785  10.080 -10.955  1.00  0.00     0.016 A 
BRANCH  15  18
HETATM   18  N   UNL     1      30.066   9.637  -7.222  1.00  0.00    -0.390 N 
HETATM   19  C   UNL     1      30.243  11.003  -6.750  1.00  0.00     0.149 C 
HETATM   20  C   UNL     1      29.925   8.570  -6.240  1.00  0.00     0.149 C 
ENDBRANCH  15  18
ENDBRANCH   4  12
TORSDOF 2
ENDMDL
MODEL 11
REMARK VINA RESULT:      -7.7      1.834      7.852
REMARK  2 active torsions:
REMARK  status: ('A' for Active; 'I' for Inactive)
REMARK    1  A    between atoms: N_3  and  C_15 
REMARK    2  A    between atoms: C_5  and  C_7 
ROOT
HETATM    1  S   UNL     1      30.048  10.327 -11.737  1.00  0.00    -0.069 SA
HETATM    2  N   UNL     1      30.034   7.828 -11.318  1.00  0.00    -0.344 N 
HETATM    3  C   UNL     1      30.014   8.451 -10.096  1.00  0.00     0.052 A 
HETATM    4  C   UNL     1      30.027   8.741 -12.348  1.00  0.00     0.087 A 
HETATM    5  C   UNL     1      30.017   9.836 -10.144  1.00  0.00     0.034 A 
HETATM    6  C   UNL     1      30.005   7.810  -8.845  1.00  0.00     0.031 A 
HETATM    7  C   UNL     1      30.007  10.631  -9.001  1.00  0.00     0.028 A 
HETATM    8  C   UNL     1      30.124   6.365 -11.425  1.00  0.00     0.157 C 
HETATM    9  C   UNL     1      29.992   9.996  -7.745  1.00  0.00    -0.061 A 
HETATM   10  C   UNL     1      29.992   8.587  -7.675  1.00  0.00     0.009 A 
HETATM   11  C   UNL     1      29.979  10.802  -6.481  1.00  0.00     0.048 C 
ENDROOT
BRANCH   4  12
HETATM   12  C   UNL     1      29.973   8.480 -13.822  1.00  0.00    -0.002 A 
HETATM   13  C   UNL     1      29.580   9.453 -14.758  1.00  0.00     0.016 A 
HETATM   14  C   UNL     1      29.565   9.173 -16.128  1.00  0.00     0.030 A 
HETATM   15  C   UNL     1      29.951   7.909 -16.621  1.00  0.00     0.029 A 
HETATM   16  C   UNL     1      30.366   6.943 -15.681  1.00  0.00     0.030 A 
HETATM   17  C   UNL     1      30.384   7.227 -14.313  1.00  0.00     0.016 A 
BRANCH  15  18
HETATM   18  N   UNL     1      29.935   7.619 -18.036  1.00  0.00    -0.390 N 
HETATM   19  C   UNL     1      29.897   8.697 -19.014  1.00  0.00     0.149 C 
HETATM   20  C   UNL     1      29.955   6.242 -18.511  1.00  0.00     0.149 C 
ENDBRANCH  15  18
ENDBRANCH   4  12
TORSDOF 2
ENDMDL
MODEL 12
REMARK VINA RESULT:      -7.7      3.058      8.974
REMARK  2 active torsions:
REMARK  status: ('A' for Active; 'I' for Inactive)
REMARK    1  A    between atoms: N_3  and  C_15 
REMARK    2  A    between atoms: C_5  and  C_7 
ROOT
HETATM    1  S   UNL     1      29.854  10.208 -16.386  1.00  0.00    -0.069 SA
HETATM    2  N   UNL     1      30.045   7.704 -16.046  1.00  0.00    -0.344 N 
HETATM    3  C   UNL     1      29.968   8.284 -14.805  1.00  0.00     0.052 A 
HETATM    4  C   UNL     1      29.967   8.646 -17.047  1.00  0.00     0.087 A 
HETATM    5  C   UNL     1      29.857   9.666 -14.809  1.00  0.00     0.034 A 
HETATM    6  C   UNL     1      30.007   7.605 -13.575  1.00  0.00     0.031 A 
HETATM    7  C   UNL     1      29.777  10.419 -13.642  1.00  0.00     0.028 A 
HETATM    8  C   UNL     1      30.255   6.258 -16.199  1.00  0.00     0.157 C 
HETATM    9  C   UNL     1      29.809   9.746 -12.406  1.00  0.00    -0.061 A 
HETATM   10  C   UNL     1      29.925   8.340 -12.382  1.00  0.00     0.009 A 
HETATM   11  C   UNL     1      29.725  10.506 -11.118  1.00  0.00     0.048 C 
ENDROOT
BRANCH   4  12
HETATM   12  C   UNL     1      29.940   8.429 -18.529  1.00  0.00    -0.002 A 
HETATM   13  C   UNL     1      29.616   9.445 -19.446  1.00  0.00     0.016 A 
HETATM   14  C   UNL     1      29.625   9.204 -20.824  1.00  0.00     0.030 A 
HETATM   15  C   UNL     1      29.967   7.938 -21.343  1.00  0.00     0.029 A 
HETATM   16  C   UNL     1      30.313   6.928 -20.421  1.00  0.00     0.030 A 
HETATM   17  C   UNL     1      30.308   7.173 -19.045  1.00  0.00     0.016 A 
BRANCH  15  18
HETATM   18  N   UNL     1      29.976   7.688 -22.766  1.00  0.00    -0.390 N 
HETATM   19  C   UNL     1      29.976   8.795 -23.713  1.00  0.00     0.149 C 
HETATM   20  C   UNL     1      29.983   6.325 -23.280  1.00  0.00     0.149 C 
ENDBRANCH  15  18
ENDBRANCH   4  12
TORSDOF 2
ENDMDL
MODEL 13
REMARK VINA RESULT:      -7.7     18.709     20.572
REMARK  2 active torsions:
REMARK  status: ('A' for Active; 'I' for Inactive)
REMARK    1  A    between atoms: N_3  and  C_15 
REMARK    2  A    between atoms: C_5  and  C_7 
ROOT
HETATM    1  S   UNL     1      28.619 -11.316  -8.939  1.00  0.00    -0.069 SA
HETATM    2  N   UNL     1      31.049 -10.600  -8.949  1.00  0.00    -0.344 N 
HETATM    3  C   UNL     1      30.656 -10.705  -7.639  1.00  0.00     0.052 A 
HETATM    4  C   UNL     1      30.029 -10.938  -9.809  1.00  0.00     0.087 A 
HETATM    5  C   UNL     1      29.338 -11.092  -7.452  1.00  0.00     0.034 A 
HETATM    6  C   UNL     1      31.458 -10.442  -6.515  1.00  0.00     0.031 A 
HETATM    7  C   UNL     1      28.768 -11.240  -6.191  1.00  0.00     0.028 A 
HETATM    8  C   UNL     1      32.390 -10.113  -9.305  1.00  0.00     0.157 C 
HETATM    9  C   UNL     1      29.566 -10.985  -5.061  1.00  0.00    -0.061 A 
HETATM   10  C   UNL     1      30.909 -10.586  -5.231  1.00  0.00     0.009 A 
HETATM   11  C   UNL     1      29.005 -11.130  -3.678  1.00  0.00     0.048 C 
ENDROOT
BRANCH   4  12
HETATM   12  C   UNL     1      30.063 -11.025 -11.305  1.00  0.00    -0.002 A 
HETATM   13  C   UNL     1      31.187 -11.476 -12.020  1.00  0.00     0.016 A 
HETATM   14  C   UNL     1      31.167 -11.563 -13.415  1.00  0.00     0.030 A 
HETATM   15  C   UNL     1      30.019 -11.211 -14.155  1.00  0.00     0.029 A 
HETATM   16  C   UNL     1      28.886 -10.780 -13.432  1.00  0.00     0.030 A 
HETATM   17  C   UNL     1      28.908 -10.699 -12.038  1.00  0.00     0.016 A 
BRANCH  15  18
HETATM   18  N   UNL     1      29.998 -11.299 -15.596  1.00  0.00    -0.390 N 
HETATM   19  C   UNL     1      31.233 -11.200 -16.363  1.00  0.00     0.149 C 
HETATM   20  C   UNL     1      28.743 -11.487 -16.311  1.00  0.00     0.149 C 
ENDBRANCH  15  18
ENDBRANCH   4  12
TORSDOF 2
ENDMDL
MODEL 14
REMARK VINA RESULT:      -7.6     18.545     20.380
REMARK  2 active torsions:
REMARK  status: ('A' for Active; 'I' for Inactive)
REMARK    1  A    between atoms: N_3  and  C_15 
REMARK    2  A    between atoms: C_5  and  C_7 
ROOT
HETATM    1  S   UNL     1      28.364 -11.216 -13.064  1.00  0.00    -0.069 SA
HETATM    2  N   UNL     1      30.840 -10.695 -12.912  1.00  0.00    -0.344 N 
HETATM    3  C   UNL     1      30.369 -10.841 -11.631  1.00  0.00     0.052 A 
HETATM    4  C   UNL     1      29.844 -10.902 -13.839  1.00  0.00     0.087 A 
HETATM    5  C   UNL     1      29.018 -11.132 -11.532  1.00  0.00     0.034 A 
HETATM    6  C   UNL     1      31.128 -10.706 -10.455  1.00  0.00     0.031 A 
HETATM    7  C   UNL     1      28.371 -11.305 -10.312  1.00  0.00     0.028 A 
HETATM    8  C   UNL     1      32.230 -10.297 -13.171  1.00  0.00     0.157 C 
HETATM    9  C   UNL     1      29.125 -11.177  -9.130  1.00  0.00    -0.061 A 
HETATM   10  C   UNL     1      30.501 -10.877  -9.210  1.00  0.00     0.009 A 
HETATM   11  C   UNL     1      28.481 -11.353  -7.788  1.00  0.00     0.048 C 
ENDROOT
BRANCH   4  12
HETATM   12  C   UNL     1      29.951 -10.909 -15.334  1.00  0.00    -0.002 A 
HETATM   13  C   UNL     1      31.064 -10.396 -16.024  1.00  0.00     0.016 A 
HETATM   14  C   UNL     1      31.133 -10.442 -17.419  1.00  0.00     0.030 A 
HETATM   15  C   UNL     1      30.095 -11.013 -18.185  1.00  0.00     0.029 A 
HETATM   16  C   UNL     1      28.990 -11.547 -17.488  1.00  0.00     0.030 A 
HETATM   17  C   UNL     1      28.927 -11.502 -16.093  1.00  0.00     0.016 A 
BRANCH  15  18
HETATM   18  N   UNL     1      30.165 -11.060 -19.627  1.00  0.00    -0.390 N 
HETATM   19  C   UNL     1      28.951 -11.167 -20.425  1.00  0.00     0.149 C 
HETATM   20  C   UNL     1      31.450 -11.004 -20.310  1.00  0.00     0.149 C 
ENDBRANCH  15  18
ENDBRANCH   4  12
TORSDOF 2
ENDMDL
MODEL 15
REMARK VINA RESULT:      -7.6     18.653     19.115
REMARK  2 active torsions:
REMARK  status: ('A' for Active; 'I' for Inactive)
REMARK    1  A    between atoms: N_3  and  C_15 
REMARK    2  A    between atoms: C_5  and  C_7 
ROOT
HETATM    1  S   UNL     1      28.642 -11.445 -11.539  1.00  0.00    -0.069 SA
HETATM    2  N   UNL     1      31.080 -10.754 -11.506  1.00  0.00    -0.344 N 
HETATM    3  C   UNL     1      30.677 -10.781 -12.817  1.00  0.00     0.052 A 
HETATM    4  C   UNL     1      30.046 -11.075 -10.655  1.00  0.00     0.087 A 
HETATM    5  C   UNL     1      29.355 -11.144 -13.017  1.00  0.00     0.034 A 
HETATM    6  C   UNL     1      31.484 -10.494 -13.932  1.00  0.00     0.031 A 
HETATM    7  C   UNL     1      28.780 -11.232 -14.282  1.00  0.00     0.028 A 
HETATM    8  C   UNL     1      32.477 -10.476 -11.144  1.00  0.00     0.157 C 
HETATM    9  C   UNL     1      29.579 -10.940 -15.402  1.00  0.00    -0.061 A 
HETATM   10  C   UNL     1      30.929 -10.573 -15.219  1.00  0.00     0.009 A 
HETATM   11  C   UNL     1      29.012 -11.017 -16.788  1.00  0.00     0.048 C 
ENDROOT
BRANCH   4  12
HETATM   12  C   UNL     1      30.044 -11.091  -9.157  1.00  0.00    -0.002 A 
HETATM   13  C   UNL     1      28.934 -10.696  -8.389  1.00  0.00     0.016 A 
HETATM   14  C   UNL     1      28.968 -10.748  -6.992  1.00  0.00     0.030 A 
HETATM   15  C   UNL     1      30.111 -11.207  -6.304  1.00  0.00     0.029 A 
HETATM   16  C   UNL     1      31.214 -11.624  -7.079  1.00  0.00     0.030 A 
HETATM   17  C   UNL     1      31.175 -11.575  -8.475  1.00  0.00     0.016 A 
BRANCH  15  18
HETATM   18  N   UNL     1      30.147 -11.261  -4.861  1.00  0.00    -0.390 N 
HETATM   19  C   UNL     1      28.942 -11.016  -4.079  1.00  0.00     0.149 C 
HETATM   20  C   UNL     1      31.388 -11.558  -4.160  1.00  0.00     0.149 C 
ENDBRANCH  15  18
ENDBRANCH   4  12
TORSDOF 2
ENDMDL
MODEL 16
REMARK VINA RESULT:      -7.6     18.708     19.169
REMARK  2 active torsions:
REMARK  status: ('A' for Active; 'I' for Inactive)
REMARK    1  A    between atoms: N_3  and  C_15 
REMARK    2  A    between atoms: C_5  and  C_7 
ROOT
HETATM    1  S   UNL     1      28.700 -11.493 -11.595  1.00  0.00    -0.069 SA
HETATM    2  N   UNL     1      31.155 -10.864 -11.616  1.00  0.00    -0.344 N 
HETATM    3  C   UNL     1      30.715 -10.851 -12.916  1.00  0.00     0.052 A 
HETATM    4  C   UNL     1      30.137 -11.179 -10.744  1.00  0.00     0.087 A 
HETATM    5  C   UNL     1      29.378 -11.176 -13.085  1.00  0.00     0.034 A 
HETATM    6  C   UNL     1      31.497 -10.558 -14.046  1.00  0.00     0.031 A 
HETATM    7  C   UNL     1      28.766 -11.220 -14.335  1.00  0.00     0.028 A 
HETATM    8  C   UNL     1      32.568 -10.629 -11.288  1.00  0.00     0.157 C 
HETATM    9  C   UNL     1      29.541 -10.922 -15.471  1.00  0.00    -0.061 A 
HETATM   10  C   UNL     1      30.904 -10.593 -15.319  1.00  0.00     0.009 A 
HETATM   11  C   UNL     1      28.933 -10.954 -16.841  1.00  0.00     0.048 C 
ENDROOT
BRANCH   4  12
HETATM   12  C   UNL     1      30.177 -11.230  -9.247  1.00  0.00    -0.002 A 
HETATM   13  C   UNL     1      31.288 -11.703  -8.526  1.00  0.00     0.016 A 
HETATM   14  C   UNL     1      31.292 -11.712  -7.128  1.00  0.00     0.030 A 
HETATM   15  C   UNL     1      30.186 -11.239  -6.390  1.00  0.00     0.029 A 
HETATM   16  C   UNL     1      29.082 -10.744  -7.117  1.00  0.00     0.030 A 
HETATM   17  C   UNL     1      29.084 -10.733  -8.514  1.00  0.00     0.016 A 
BRANCH  15  18
HETATM   18  N   UNL     1      30.188 -11.248  -4.946  1.00  0.00    -0.390 N 
HETATM   19  C   UNL     1      31.427 -11.450  -4.208  1.00  0.00     0.149 C 
HETATM   20  C   UNL     1      28.951 -11.058  -4.201  1.00  0.00     0.149 C 
ENDBRANCH  15  18
ENDBRANCH   4  12
TORSDOF 2
ENDMDL
MODEL 17
REMARK VINA RESULT:      -7.6     18.595     18.919
REMARK  2 active torsions:
REMARK  status: ('A' for Active; 'I' for Inactive)
REMARK    1  A    between atoms: N_3  and  C_15 
REMARK    2  A    between atoms: C_5  and  C_7 
ROOT
HETATM    1  S   UNL     1      28.549 -11.222 -15.603  1.00  0.00    -0.069 SA
HETATM    2  N   UNL     1      31.064 -10.928 -15.512  1.00  0.00    -0.344 N 
HETATM    3  C   UNL     1      30.696 -10.930 -16.834  1.00  0.00     0.052 A 
HETATM    4  C   UNL     1      29.970 -11.055 -14.686  1.00  0.00     0.087 A 
HETATM    5  C   UNL     1      29.338 -11.082 -17.065  1.00  0.00     0.034 A 
HETATM    6  C   UNL     1      31.567 -10.808 -17.930  1.00  0.00     0.031 A 
HETATM    7  C   UNL     1      28.790 -11.115 -18.344  1.00  0.00     0.028 A 
HETATM    8  C   UNL     1      32.477 -10.866 -15.115  1.00  0.00     0.157 C 
HETATM    9  C   UNL     1      29.655 -10.987 -19.446  1.00  0.00    -0.061 A 
HETATM   10  C   UNL     1      31.041 -10.835 -19.232  1.00  0.00     0.009 A 
HETATM   11  C   UNL     1      29.119 -11.015 -20.846  1.00  0.00     0.048 C 
ENDROOT
BRANCH   4  12
HETATM   12  C   UNL     1      29.926 -11.026 -13.188  1.00  0.00    -0.002 A 
HETATM   13  C   UNL     1      30.937 -10.441 -12.404  1.00  0.00     0.016 A 
HETATM   14  C   UNL     1      30.845 -10.417 -11.009  1.00  0.00     0.030 A 
HETATM   15  C   UNL     1      29.733 -10.968 -10.339  1.00  0.00     0.029 A 
HETATM   16  C   UNL     1      28.710 -11.534 -11.130  1.00  0.00     0.030 A 
HETATM   17  C   UNL     1      28.804 -11.552 -12.524  1.00  0.00     0.016 A 
BRANCH  15  18
HETATM   18  N   UNL     1      29.637 -10.944  -8.898  1.00  0.00    -0.390 N 
HETATM   19  C   UNL     1      28.353 -11.132  -8.237  1.00  0.00     0.149 C 
HETATM   20  C   UNL     1      30.822 -10.731  -8.079  1.00  0.00     0.149 C 
ENDBRANCH  15  18
ENDBRANCH   4  12
TORSDOF 2
ENDMDL
MODEL 18
REMARK VINA RESULT:      -7.5     18.833     18.991
REMARK  2 active torsions:
REMARK  status: ('A' for Active; 'I' for Inactive)
REMARK    1  A    between atoms: N_3  and  C_15 
REMARK    2  A    between atoms: C_5  and  C_7 
ROOT
HETATM    1  S   UNL     1      28.504 -11.186 -13.457  1.00  0.00    -0.069 SA
HETATM    2  N   UNL     1      31.036 -11.179 -13.545  1.00  0.00    -0.344 N 
HETATM    3  C   UNL     1      30.578 -11.175 -14.839  1.00  0.00     0.052 A 
HETATM    4  C   UNL     1      29.996 -11.157 -12.644  1.00  0.00     0.087 A 
HETATM    5  C   UNL     1      29.199 -11.179 -14.973  1.00  0.00     0.034 A 
HETATM    6  C   UNL     1      31.378 -11.185 -15.994  1.00  0.00     0.031 A 
HETATM    7  C   UNL     1      28.562 -11.184 -16.210  1.00  0.00     0.028 A 
HETATM    8  C   UNL     1      32.472 -11.267 -13.245  1.00  0.00     0.157 C 
HETATM    9  C   UNL     1      29.356 -11.187 -17.372  1.00  0.00    -0.061 A 
HETATM   10  C   UNL     1      30.762 -11.188 -17.256  1.00  0.00     0.009 A 
HETATM   11  C   UNL     1      28.723 -11.192 -18.731  1.00  0.00     0.048 C 
ENDROOT
BRANCH   4  12
HETATM   12  C   UNL     1      30.061 -11.082 -11.149  1.00  0.00    -0.002 A 
HETATM   13  C   UNL     1      31.242 -10.777 -10.448  1.00  0.00     0.016 A 
HETATM   14  C   UNL     1      31.253 -10.695  -9.053  1.00  0.00     0.030 A 
HETATM   15  C   UNL     1      30.080 -10.905  -8.298  1.00  0.00     0.029 A 
HETATM   16  C   UNL     1      28.893 -11.189  -9.005  1.00  0.00     0.030 A 
HETATM   17  C   UNL     1      28.885 -11.265 -10.400  1.00  0.00     0.016 A 
BRANCH  15  18
HETATM   18  N   UNL     1      30.091 -10.822  -6.856  1.00  0.00    -0.390 N 
HETATM   19  C   UNL     1      28.926 -11.227  -6.081  1.00  0.00     0.149 C 
HETATM   20  C   UNL     1      31.266 -10.329  -6.150  1.00  0.00     0.149 C 
ENDBRANCH  15  18
ENDBRANCH   4  12
TORSDOF 2
ENDMDL
MODEL 19
REMARK VINA RESULT:      -7.4     18.702     18.995
REMARK  2 active torsions:
REMARK  status: ('A' for Active; 'I' for Inactive)
REMARK    1  A    between atoms: N_3  and  C_15 
REMARK    2  A    between atoms: C_5  and  C_7 
ROOT
HETATM    1  S   UNL     1      31.678 -10.542 -13.513  1.00  0.00    -0.069 SA
HETATM    2  N   UNL     1      29.237 -11.219 -13.468  1.00  0.00    -0.344 N 
HETATM    3  C   UNL     1      29.612 -11.117 -14.784  1.00  0.00     0.052 A 
HETATM    4  C   UNL     1      30.291 -10.954 -12.622  1.00  0.00     0.087 A 
HETATM    5  C   UNL     1      30.933 -10.752 -14.990  1.00  0.00     0.034 A 
HETATM    6  C   UNL     1      28.780 -11.333 -15.896  1.00  0.00     0.031 A 
HETATM    7  C   UNL     1      31.482 -10.593 -16.259  1.00  0.00     0.028 A 
HETATM    8  C   UNL     1      27.846 -11.509 -13.093  1.00  0.00     0.157 C 
HETATM    9  C   UNL     1      30.657 -10.813 -17.378  1.00  0.00    -0.061 A 
HETATM   10  C   UNL     1      29.309 -11.182 -17.188  1.00  0.00     0.009 A 
HETATM   11  C   UNL     1      31.196 -10.658 -18.768  1.00  0.00     0.048 C 
ENDROOT
BRANCH   4  12
HETATM   12  C   UNL     1      30.324 -11.027 -11.126  1.00  0.00    -0.002 A 
HETATM   13  C   UNL     1      29.192 -10.801 -10.323  1.00  0.00     0.016 A 
HETATM   14  C   UNL     1      29.262 -10.900  -8.931  1.00  0.00     0.030 A 
HETATM   15  C   UNL     1      30.468 -11.240  -8.281  1.00  0.00     0.029 A 
HETATM   16  C   UNL     1      31.596 -11.488  -9.092  1.00  0.00     0.030 A 
HETATM   17  C   UNL     1      31.520 -11.392 -10.483  1.00  0.00     0.016 A 
BRANCH  15  18
HETATM   18  N   UNL     1      30.542 -11.342  -6.843  1.00  0.00    -0.390 N 
HETATM   19  C   UNL     1      31.823 -11.548  -6.179  1.00  0.00     0.149 C 
HETATM   20  C   UNL     1      29.339 -11.242  -6.028  1.00  0.00     0.149 C 
ENDBRANCH  15  18
ENDBRANCH   4  12
TORSDOF 2
ENDMDL
