MODEL 1
REMARK VINA RESULT:      -5.1      0.000      0.000
REMARK  15 active torsions:
REMARK  status: ('A' for Active; 'I' for Inactive)
REMARK    1  A    between atoms: O_1  and  C_22 
REMARK    2  A    between atoms: C_3  and  C_4 
REMARK    3  A    between atoms: C_3  and  C_5 
REMARK    4  A    between atoms: C_4  and  C_6 
REMARK    5  A    between atoms: C_5  and  C_7 
REMARK    6  A    between atoms: C_9  and  C_10 
REMARK    7  A    between atoms: C_9  and  C_13 
REMARK    8  A    between atoms: C_10  and  C_14 
REMARK    9  A    between atoms: C_11  and  C_12 
REMARK   10  A    between atoms: C_12  and  C_16 
REMARK   11  A    between atoms: C_13  and  C_22 
REMARK   12  A    between atoms: C_15  and  C_17 
REMARK   13  A    between atoms: C_15  and  C_20 
REMARK   14  A    between atoms: C_18  and  C_19 
REMARK   15  A    between atoms: C_18  and  C_21 
ROOT
HETATM    1  O   UNL     1      35.577  -6.124 -17.257  1.00  0.00    -0.776 OA
HETATM    2  H   UNL     1      35.641  -6.869 -17.872  1.00  0.00     0.167 HD
ENDROOT
BRANCH   1   3
HETATM    3  C   UNL     1      34.470  -5.922 -16.511  1.00  0.00     0.139 C 
HETATM    4  O   UNL     1      34.073  -4.785 -16.299  1.00  0.00    -0.650 OA
BRANCH   3   5
HETATM    5  C   UNL     1      33.734  -7.099 -15.932  1.00  0.00     0.110 C 
BRANCH   5   6
HETATM    6  C   UNL     1      33.508  -8.212 -16.965  1.00  0.00     0.014 C 
BRANCH   6   7
HETATM    7  C   UNL     1      32.164  -8.927 -16.779  1.00  0.00     0.027 C 
BRANCH   7   8
HETATM    8  C   UNL     1      32.213  -9.787 -15.541  1.00  0.00    -0.030 C 
HETATM    9  C   UNL     1      31.152 -10.390 -14.972  1.00  0.00    -0.027 C 
BRANCH   9  10
HETATM   10  C   UNL     1      29.735 -10.333 -15.485  1.00  0.00     0.053 C 
BRANCH  10  11
HETATM   11  C   UNL     1      29.391 -11.570 -16.286  1.00  0.00    -0.027 C 
HETATM   12  C   UNL     1      29.201 -11.657 -17.618  1.00  0.00    -0.027 C 
BRANCH  12  13
HETATM   13  C   UNL     1      29.306 -10.540 -18.625  1.00  0.00     0.053 C 
BRANCH  13  14
HETATM   14  C   UNL     1      29.299 -11.105 -20.026  1.00  0.00    -0.027 C 
HETATM   15  C   UNL     1      30.179 -10.781 -20.996  1.00  0.00    -0.027 C 
BRANCH  15  16
HETATM   16  C   UNL     1      31.300  -9.787 -20.834  1.00  0.00     0.053 C 
BRANCH  16  17
HETATM   17  C   UNL     1      32.602 -10.332 -21.365  1.00  0.00    -0.027 C 
HETATM   18  C   UNL     1      33.507 -10.980 -20.610  1.00  0.00    -0.030 C 
BRANCH  18  19
HETATM   19  C   UNL     1      33.363 -11.246 -19.133  1.00  0.00     0.027 C 
BRANCH  19  20
HETATM   20  C   UNL     1      32.940 -12.702 -18.911  1.00  0.00     0.004 C 
BRANCH  20  21
HETATM   21  C   UNL     1      32.584 -12.959 -17.443  1.00  0.00    -0.000 C 
BRANCH  21  22
HETATM   22  C   UNL     1      33.788 -13.524 -16.680  1.00  0.00    -0.005 C 
HETATM   23  C   UNL     1      33.667 -13.256 -15.183  1.00  0.00     0.005 C 
ENDBRANCH  21  22
ENDBRANCH  20  21
ENDBRANCH  19  20
ENDBRANCH  18  19
ENDBRANCH  16  17
ENDBRANCH  15  16
ENDBRANCH  13  14
ENDBRANCH  12  13
ENDBRANCH  10  11
ENDBRANCH   9  10
ENDBRANCH   7   8
ENDBRANCH   6   7
ENDBRANCH   5   6
ENDBRANCH   3   5
ENDBRANCH   1   3
TORSDOF 15
ENDMDL
MODEL 2
REMARK VINA RESULT:      -5.1      6.367      8.299
REMARK  15 active torsions:
REMARK  status: ('A' for Active; 'I' for Inactive)
REMARK    1  A    between atoms: O_1  and  C_22 
REMARK    2  A    between atoms: C_3  and  C_4 
REMARK    3  A    between atoms: C_3  and  C_5 
REMARK    4  A    between atoms: C_4  and  C_6 
REMARK    5  A    between atoms: C_5  and  C_7 
REMARK    6  A    between atoms: C_9  and  C_10 
REMARK    7  A    between atoms: C_9  and  C_13 
REMARK    8  A    between atoms: C_10  and  C_14 
REMARK    9  A    between atoms: C_11  and  C_12 
REMARK   10  A    between atoms: C_12  and  C_16 
REMARK   11  A    between atoms: C_13  and  C_22 
REMARK   12  A    between atoms: C_15  and  C_17 
REMARK   13  A    between atoms: C_15  and  C_20 
REMARK   14  A    between atoms: C_18  and  C_19 
REMARK   15  A    between atoms: C_18  and  C_21 
ROOT
HETATM    1  O   UNL     1      35.571  -6.019  -7.526  1.00  0.00    -0.776 OA
HETATM    2  H   UNL     1      35.337  -6.407  -8.381  1.00  0.00     0.167 HD
ENDROOT
BRANCH   1   3
HETATM    3  C   UNL     1      34.640  -5.809  -6.571  1.00  0.00     0.139 C 
HETATM    4  O   UNL     1      34.725  -4.834  -5.838  1.00  0.00    -0.650 OA
BRANCH   3   5
HETATM    5  C   UNL     1      33.506  -6.782  -6.406  1.00  0.00     0.110 C 
BRANCH   5   6
HETATM    6  C   UNL     1      33.729  -8.078  -7.198  1.00  0.00     0.014 C 
BRANCH   6   7
HETATM    7  C   UNL     1      33.181  -9.316  -6.475  1.00  0.00     0.027 C 
BRANCH   7   8
HETATM    8  C   UNL     1      31.686  -9.195  -6.322  1.00  0.00    -0.030 C 
HETATM    9  C   UNL     1      30.792 -10.147  -6.649  1.00  0.00    -0.027 C 
BRANCH   9  10
HETATM   10  C   UNL     1      31.129 -11.509  -7.201  1.00  0.00     0.053 C 
BRANCH  10  11
HETATM   11  C   UNL     1      30.582 -11.684  -8.601  1.00  0.00    -0.027 C 
HETATM   12  C   UNL     1      31.122 -11.239  -9.754  1.00  0.00    -0.027 C 
BRANCH  12  13
HETATM   13  C   UNL     1      32.413 -10.478  -9.917  1.00  0.00     0.053 C 
BRANCH  13  14
HETATM   14  C   UNL     1      32.144  -9.132 -10.548  1.00  0.00    -0.027 C 
HETATM   15  C   UNL     1      32.371  -8.825 -11.842  1.00  0.00    -0.027 C 
BRANCH  15  16
HETATM   16  C   UNL     1      32.948  -9.778 -12.857  1.00  0.00     0.053 C 
BRANCH  16  17
HETATM   17  C   UNL     1      33.150  -9.107 -14.192  1.00  0.00    -0.027 C 
HETATM   18  C   UNL     1      32.566  -9.515 -15.332  1.00  0.00    -0.030 C 
BRANCH  18  19
HETATM   19  C   UNL     1      31.640 -10.699 -15.448  1.00  0.00     0.027 C 
BRANCH  19  20
HETATM   20  C   UNL     1      30.212 -10.213 -15.713  1.00  0.00     0.004 C 
BRANCH  20  21
HETATM   21  C   UNL     1      29.192 -11.015 -14.899  1.00  0.00    -0.000 C 
BRANCH  21  22
HETATM   22  C   UNL     1      29.652 -11.168 -13.444  1.00  0.00    -0.005 C 
HETATM   23  C   UNL     1      28.479 -11.039 -12.478  1.00  0.00     0.005 C 
ENDBRANCH  21  22
ENDBRANCH  20  21
ENDBRANCH  19  20
ENDBRANCH  18  19
ENDBRANCH  16  17
ENDBRANCH  15  16
ENDBRANCH  13  14
ENDBRANCH  12  13
ENDBRANCH  10  11
ENDBRANCH   9  10
ENDBRANCH   7   8
ENDBRANCH   6   7
ENDBRANCH   5   6
ENDBRANCH   3   5
ENDBRANCH   1   3
TORSDOF 15
ENDMDL
MODEL 3
REMARK VINA RESULT:      -5.0      3.849      5.771
REMARK  15 active torsions:
REMARK  status: ('A' for Active; 'I' for Inactive)
REMARK    1  A    between atoms: O_1  and  C_22 
REMARK    2  A    between atoms: C_3  and  C_4 
REMARK    3  A    between atoms: C_3  and  C_5 
REMARK    4  A    between atoms: C_4  and  C_6 
REMARK    5  A    between atoms: C_5  and  C_7 
REMARK    6  A    between atoms: C_9  and  C_10 
REMARK    7  A    between atoms: C_9  and  C_13 
REMARK    8  A    between atoms: C_10  and  C_14 
REMARK    9  A    between atoms: C_11  and  C_12 
REMARK   10  A    between atoms: C_12  and  C_16 
REMARK   11  A    between atoms: C_13  and  C_22 
REMARK   12  A    between atoms: C_15  and  C_17 
REMARK   13  A    between atoms: C_15  and  C_20 
REMARK   14  A    between atoms: C_18  and  C_19 
REMARK   15  A    between atoms: C_18  and  C_21 
ROOT
HETATM    1  O   UNL     1      35.631  -6.069 -12.435  1.00  0.00    -0.776 OA
HETATM    2  H   UNL     1      36.313  -5.399 -12.582  1.00  0.00     0.167 HD
ENDROOT
BRANCH   1   3
HETATM    3  C   UNL     1      34.559  -5.821 -11.653  1.00  0.00     0.139 C 
HETATM    4  O   UNL     1      34.281  -4.672 -11.342  1.00  0.00    -0.650 OA
BRANCH   3   5
HETATM    5  C   UNL     1      33.715  -6.963 -11.157  1.00  0.00     0.110 C 
BRANCH   5   6
HETATM    6  C   UNL     1      33.609  -8.100 -12.184  1.00  0.00     0.014 C 
BRANCH   6   7
HETATM    7  C   UNL     1      33.187  -9.431 -11.550  1.00  0.00     0.027 C 
BRANCH   7   8
HETATM    8  C   UNL     1      33.085  -9.272 -10.054  1.00  0.00    -0.030 C 
HETATM    9  C   UNL     1      32.442 -10.117  -9.225  1.00  0.00    -0.027 C 
BRANCH   9  10
HETATM   10  C   UNL     1      31.732 -11.380  -9.642  1.00  0.00     0.053 C 
BRANCH  10  11
HETATM   11  C   UNL     1      30.258 -11.316  -9.308  1.00  0.00    -0.027 C 
HETATM   12  C   UNL     1      29.283 -10.707 -10.013  1.00  0.00    -0.027 C 
BRANCH  12  13
HETATM   13  C   UNL     1      29.435  -9.962 -11.315  1.00  0.00     0.053 C 
BRANCH  13  14
HETATM   14  C   UNL     1      28.703 -10.693 -12.417  1.00  0.00    -0.027 C 
HETATM   15  C   UNL     1      29.295 -11.342 -13.440  1.00  0.00    -0.027 C 
BRANCH  15  16
HETATM   16  C   UNL     1      30.785 -11.424 -13.652  1.00  0.00     0.053 C 
BRANCH  16  17
HETATM   17  C   UNL     1      31.270 -10.344 -14.586  1.00  0.00    -0.027 C 
HETATM   18  C   UNL     1      31.454 -10.521 -15.906  1.00  0.00    -0.030 C 
BRANCH  18  19
HETATM   19  C   UNL     1      31.217 -11.816 -16.641  1.00  0.00     0.027 C 
BRANCH  19  20
HETATM   20  C   UNL     1      30.871 -11.522 -18.104  1.00  0.00     0.004 C 
BRANCH  20  21
HETATM   21  C   UNL     1      31.618 -10.284 -18.613  1.00  0.00    -0.000 C 
BRANCH  21  22
HETATM   22  C   UNL     1      32.960 -10.675 -19.241  1.00  0.00    -0.005 C 
HETATM   23  C   UNL     1      33.875  -9.463 -19.388  1.00  0.00     0.005 C 
ENDBRANCH  21  22
ENDBRANCH  20  21
ENDBRANCH  19  20
ENDBRANCH  18  19
ENDBRANCH  16  17
ENDBRANCH  15  16
ENDBRANCH  13  14
ENDBRANCH  12  13
ENDBRANCH  10  11
ENDBRANCH   9  10
ENDBRANCH   7   8
ENDBRANCH   6   7
ENDBRANCH   5   6
ENDBRANCH   3   5
ENDBRANCH   1   3
TORSDOF 15
ENDMDL
MODEL 4
REMARK VINA RESULT:      -4.9      6.554      9.911
REMARK  15 active torsions:
REMARK  status: ('A' for Active; 'I' for Inactive)
REMARK    1  A    between atoms: O_1  and  C_22 
REMARK    2  A    between atoms: C_3  and  C_4 
REMARK    3  A    between atoms: C_3  and  C_5 
REMARK    4  A    between atoms: C_4  and  C_6 
REMARK    5  A    between atoms: C_5  and  C_7 
REMARK    6  A    between atoms: C_9  and  C_10 
REMARK    7  A    between atoms: C_9  and  C_13 
REMARK    8  A    between atoms: C_10  and  C_14 
REMARK    9  A    between atoms: C_11  and  C_12 
REMARK   10  A    between atoms: C_12  and  C_16 
REMARK   11  A    between atoms: C_13  and  C_22 
REMARK   12  A    between atoms: C_15  and  C_17 
REMARK   13  A    between atoms: C_15  and  C_20 
REMARK   14  A    between atoms: C_18  and  C_19 
REMARK   15  A    between atoms: C_18  and  C_21 
ROOT
HETATM    1  O   UNL     1      34.704 -15.596 -13.838  1.00  0.00    -0.776 OA
HETATM    2  H   UNL     1      35.610 -15.795 -14.113  1.00  0.00     0.167 HD
ENDROOT
BRANCH   1   3
HETATM    3  C   UNL     1      34.365 -15.520 -12.534  1.00  0.00     0.139 C 
HETATM    4  O   UNL     1      34.475 -16.502 -11.814  1.00  0.00    -0.650 OA
BRANCH   3   5
HETATM    5  C   UNL     1      33.842 -14.226 -11.972  1.00  0.00     0.110 C 
BRANCH   5   6
HETATM    6  C   UNL     1      33.239 -13.321 -13.055  1.00  0.00     0.014 C 
BRANCH   6   7
HETATM    7  C   UNL     1      32.031 -12.521 -12.551  1.00  0.00     0.027 C 
BRANCH   7   8
HETATM    8  C   UNL     1      31.480 -11.673 -13.670  1.00  0.00    -0.030 C 
HETATM    9  C   UNL     1      30.228 -11.181 -13.728  1.00  0.00    -0.027 C 
BRANCH   9  10
HETATM   10  C   UNL     1      29.165 -11.369 -12.675  1.00  0.00     0.053 C 
BRANCH  10  11
HETATM   11  C   UNL     1      29.200 -10.252 -11.656  1.00  0.00    -0.027 C 
HETATM   12  C   UNL     1      29.038 -10.355 -10.321  1.00  0.00    -0.027 C 
BRANCH  12  13
HETATM   13  C   UNL     1      28.804 -11.616  -9.529  1.00  0.00     0.053 C 
BRANCH  13  14
HETATM   14  C   UNL     1      28.276 -11.275  -8.156  1.00  0.00    -0.027 C 
HETATM   15  C   UNL     1      29.023 -11.205  -7.035  1.00  0.00    -0.027 C 
BRANCH  15  16
HETATM   16  C   UNL     1      30.504 -11.475  -6.978  1.00  0.00     0.053 C 
BRANCH  16  17
HETATM   17  C   UNL     1      31.145 -10.794  -5.795  1.00  0.00    -0.027 C 
HETATM   18  C   UNL     1      31.928  -9.704  -5.890  1.00  0.00    -0.030 C 
BRANCH  18  19
HETATM   19  C   UNL     1      32.288  -9.015  -7.182  1.00  0.00     0.027 C 
BRANCH  19  20
HETATM   20  C   UNL     1      33.680  -9.466  -7.635  1.00  0.00     0.004 C 
BRANCH  20  21
HETATM   21  C   UNL     1      33.854  -9.294  -9.148  1.00  0.00    -0.000 C 
BRANCH  21  22
HETATM   22  C   UNL     1      32.564  -9.662  -9.892  1.00  0.00    -0.005 C 
HETATM   23  C   UNL     1      32.315  -8.718 -11.064  1.00  0.00     0.005 C 
ENDBRANCH  21  22
ENDBRANCH  20  21
ENDBRANCH  19  20
ENDBRANCH  18  19
ENDBRANCH  16  17
ENDBRANCH  15  16
ENDBRANCH  13  14
ENDBRANCH  12  13
ENDBRANCH  10  11
ENDBRANCH   9  10
ENDBRANCH   7   8
ENDBRANCH   6   7
ENDBRANCH   5   6
ENDBRANCH   3   5
ENDBRANCH   1   3
TORSDOF 15
ENDMDL
MODEL 5
REMARK VINA RESULT:      -4.8      4.957      8.358
REMARK  15 active torsions:
REMARK  status: ('A' for Active; 'I' for Inactive)
REMARK    1  A    between atoms: O_1  and  C_22 
REMARK    2  A    between atoms: C_3  and  C_4 
REMARK    3  A    between atoms: C_3  and  C_5 
REMARK    4  A    between atoms: C_4  and  C_6 
REMARK    5  A    between atoms: C_5  and  C_7 
REMARK    6  A    between atoms: C_9  and  C_10 
REMARK    7  A    between atoms: C_9  and  C_13 
REMARK    8  A    between atoms: C_10  and  C_14 
REMARK    9  A    between atoms: C_11  and  C_12 
REMARK   10  A    between atoms: C_12  and  C_16 
REMARK   11  A    between atoms: C_13  and  C_22 
REMARK   12  A    between atoms: C_15  and  C_17 
REMARK   13  A    between atoms: C_15  and  C_20 
REMARK   14  A    between atoms: C_18  and  C_19 
REMARK   15  A    between atoms: C_18  and  C_21 
ROOT
HETATM    1  O   UNL     1      33.902 -14.302 -10.872  1.00  0.00    -0.776 OA
HETATM    2  H   UNL     1      33.462 -13.462 -10.680  1.00  0.00     0.167 HD
ENDROOT
BRANCH   1   3
HETATM    3  C   UNL     1      34.159 -14.687 -12.140  1.00  0.00     0.139 C 
HETATM    4  O   UNL     1      34.016 -15.856 -12.466  1.00  0.00    -0.650 OA
BRANCH   3   5
HETATM    5  C   UNL     1      34.633 -13.675 -13.147  1.00  0.00     0.110 C 
BRANCH   5   6
HETATM    6  C   UNL     1      33.816 -12.376 -13.098  1.00  0.00     0.014 C 
BRANCH   6   7
HETATM    7  C   UNL     1      34.694 -11.131 -12.917  1.00  0.00     0.027 C 
BRANCH   7   8
HETATM    8  C   UNL     1      34.237 -10.045 -13.858  1.00  0.00    -0.030 C 
HETATM    9  C   UNL     1      33.253  -9.162 -13.604  1.00  0.00    -0.027 C 
BRANCH   9  10
HETATM   10  C   UNL     1      32.453  -9.087 -12.328  1.00  0.00     0.053 C 
BRANCH  10  11
HETATM   11  C   UNL     1      33.177  -8.279 -11.274  1.00  0.00    -0.027 C 
HETATM   12  C   UNL     1      33.633  -8.709 -10.080  1.00  0.00    -0.027 C 
BRANCH  12  13
HETATM   13  C   UNL     1      33.543 -10.108  -9.525  1.00  0.00     0.053 C 
BRANCH  13  14
HETATM   14  C   UNL     1      32.493 -10.168  -8.441  1.00  0.00    -0.027 C 
HETATM   15  C   UNL     1      31.259 -10.691  -8.588  1.00  0.00    -0.027 C 
BRANCH  15  16
HETATM   16  C   UNL     1      30.730 -11.285  -9.867  1.00  0.00     0.053 C 
BRANCH  16  17
HETATM   17  C   UNL     1      29.593 -10.467 -10.428  1.00  0.00    -0.027 C 
HETATM   18  C   UNL     1      29.101 -10.619 -11.670  1.00  0.00    -0.030 C 
BRANCH  18  19
HETATM   19  C   UNL     1      29.614 -11.611 -12.683  1.00  0.00     0.027 C 
BRANCH  19  20
HETATM   20  C   UNL     1      29.220 -11.158 -14.092  1.00  0.00     0.004 C 
BRANCH  20  21
HETATM   21  C   UNL     1      30.447 -11.045 -15.003  1.00  0.00    -0.000 C 
BRANCH  21  22
HETATM   22  C   UNL     1      30.041 -10.607 -16.415  1.00  0.00    -0.005 C 
HETATM   23  C   UNL     1      28.901 -11.468 -16.952  1.00  0.00     0.005 C 
ENDBRANCH  21  22
ENDBRANCH  20  21
ENDBRANCH  19  20
ENDBRANCH  18  19
ENDBRANCH  16  17
ENDBRANCH  15  16
ENDBRANCH  13  14
ENDBRANCH  12  13
ENDBRANCH  10  11
ENDBRANCH   9  10
ENDBRANCH   7   8
ENDBRANCH   6   7
ENDBRANCH   5   6
ENDBRANCH   3   5
ENDBRANCH   1   3
TORSDOF 15
ENDMDL
MODEL 6
REMARK VINA RESULT:      -4.8      9.872     12.687
REMARK  15 active torsions:
REMARK  status: ('A' for Active; 'I' for Inactive)
REMARK    1  A    between atoms: O_1  and  C_22 
REMARK    2  A    between atoms: C_3  and  C_4 
REMARK    3  A    between atoms: C_3  and  C_5 
REMARK    4  A    between atoms: C_4  and  C_6 
REMARK    5  A    between atoms: C_5  and  C_7 
REMARK    6  A    between atoms: C_9  and  C_10 
REMARK    7  A    between atoms: C_9  and  C_13 
REMARK    8  A    between atoms: C_10  and  C_14 
REMARK    9  A    between atoms: C_11  and  C_12 
REMARK   10  A    between atoms: C_12  and  C_16 
REMARK   11  A    between atoms: C_13  and  C_22 
REMARK   12  A    between atoms: C_15  and  C_17 
REMARK   13  A    between atoms: C_15  and  C_20 
REMARK   14  A    between atoms: C_18  and  C_19 
REMARK   15  A    between atoms: C_18  and  C_21 
ROOT
HETATM    1  O   UNL     1      33.704 -15.835  -7.440  1.00  0.00    -0.776 OA
HETATM    2  H   UNL     1      34.198 -16.586  -7.082  1.00  0.00     0.167 HD
ENDROOT
BRANCH   1   3
HETATM    3  C   UNL     1      34.325 -14.689  -7.792  1.00  0.00     0.139 C 
HETATM    4  O   UNL     1      34.134 -14.204  -8.898  1.00  0.00    -0.650 OA
BRANCH   3   5
HETATM    5  C   UNL     1      35.260 -14.017  -6.824  1.00  0.00     0.110 C 
BRANCH   5   6
HETATM    6  C   UNL     1      34.811 -12.592  -6.473  1.00  0.00     0.014 C 
BRANCH   6   7
HETATM    7  C   UNL     1      33.571 -12.567  -5.570  1.00  0.00     0.027 C 
BRANCH   7   8
HETATM    8  C   UNL     1      33.771 -13.507  -4.407  1.00  0.00    -0.030 C 
HETATM    9  C   UNL     1      33.508 -13.215  -3.119  1.00  0.00    -0.027 C 
BRANCH   9  10
HETATM   10  C   UNL     1      32.945 -11.910  -2.616  1.00  0.00     0.053 C 
BRANCH  10  11
HETATM   11  C   UNL     1      31.466 -12.028  -2.322  1.00  0.00    -0.027 C 
HETATM   12  C   UNL     1      30.439 -11.664  -3.118  1.00  0.00    -0.027 C 
BRANCH  12  13
HETATM   13  C   UNL     1      30.530 -11.071  -4.500  1.00  0.00     0.053 C 
BRANCH  13  14
HETATM   14  C   UNL     1      29.146 -10.910  -5.085  1.00  0.00    -0.027 C 
HETATM   15  C   UNL     1      28.782 -11.293  -6.326  1.00  0.00    -0.027 C 
BRANCH  15  16
HETATM   16  C   UNL     1      29.708 -11.929  -7.330  1.00  0.00     0.053 C 
BRANCH  16  17
HETATM   17  C   UNL     1      29.727 -11.160  -8.628  1.00  0.00    -0.027 C 
HETATM   18  C   UNL     1      30.848 -10.711  -9.217  1.00  0.00    -0.030 C 
BRANCH  18  19
HETATM   19  C   UNL     1      32.241 -10.895  -8.668  1.00  0.00     0.027 C 
BRANCH  19  20
HETATM   20  C   UNL     1      32.831  -9.531  -8.294  1.00  0.00     0.004 C 
BRANCH  20  21
HETATM   21  C   UNL     1      32.268  -9.031  -6.959  1.00  0.00    -0.000 C 
BRANCH  21  22
HETATM   22  C   UNL     1      33.332  -8.254  -6.174  1.00  0.00    -0.005 C 
HETATM   23  C   UNL     1      33.678  -8.961  -4.868  1.00  0.00     0.005 C 
ENDBRANCH  21  22
ENDBRANCH  20  21
ENDBRANCH  19  20
ENDBRANCH  18  19
ENDBRANCH  16  17
ENDBRANCH  15  16
ENDBRANCH  13  14
ENDBRANCH  12  13
ENDBRANCH  10  11
ENDBRANCH   9  10
ENDBRANCH   7   8
ENDBRANCH   6   7
ENDBRANCH   5   6
ENDBRANCH   3   5
ENDBRANCH   1   3
TORSDOF 15
ENDMDL
MODEL 7
REMARK VINA RESULT:      -4.8      5.323      6.759
REMARK  15 active torsions:
REMARK  status: ('A' for Active; 'I' for Inactive)
REMARK    1  A    between atoms: O_1  and  C_22 
REMARK    2  A    between atoms: C_3  and  C_4 
REMARK    3  A    between atoms: C_3  and  C_5 
REMARK    4  A    between atoms: C_4  and  C_6 
REMARK    5  A    between atoms: C_5  and  C_7 
REMARK    6  A    between atoms: C_9  and  C_10 
REMARK    7  A    between atoms: C_9  and  C_13 
REMARK    8  A    between atoms: C_10  and  C_14 
REMARK    9  A    between atoms: C_11  and  C_12 
REMARK   10  A    between atoms: C_12  and  C_16 
REMARK   11  A    between atoms: C_13  and  C_22 
REMARK   12  A    between atoms: C_15  and  C_17 
REMARK   13  A    between atoms: C_15  and  C_20 
REMARK   14  A    between atoms: C_18  and  C_19 
REMARK   15  A    between atoms: C_18  and  C_21 
ROOT
HETATM    1  O   UNL     1      28.622 -11.936  -6.245  1.00  0.00    -0.776 OA
HETATM    2  H   UNL     1      29.095 -12.779  -6.197  1.00  0.00     0.167 HD
ENDROOT
BRANCH   1   3
HETATM    3  C   UNL     1      28.416 -11.311  -7.424  1.00  0.00     0.139 C 
HETATM    4  O   UNL     1      27.281 -11.196  -7.865  1.00  0.00    -0.650 OA
BRANCH   3   5
HETATM    5  C   UNL     1      29.585 -10.769  -8.198  1.00  0.00     0.110 C 
BRANCH   5   6
HETATM    6  C   UNL     1      30.807 -11.697  -8.137  1.00  0.00     0.014 C 
BRANCH   6   7
HETATM    7  C   UNL     1      31.713 -11.565  -9.368  1.00  0.00     0.027 C 
BRANCH   7   8
HETATM    8  C   UNL     1      31.420 -10.266 -10.077  1.00  0.00    -0.030 C 
HETATM    9  C   UNL     1      31.036 -10.152 -11.362  1.00  0.00    -0.027 C 
BRANCH   9  10
HETATM   10  C   UNL     1      30.808 -11.302 -12.311  1.00  0.00     0.053 C 
BRANCH  10  11
HETATM   11  C   UNL     1      29.342 -11.445 -12.657  1.00  0.00    -0.027 C 
HETATM   12  C   UNL     1      28.751 -11.197 -13.843  1.00  0.00    -0.027 C 
BRANCH  12  13
HETATM   13  C   UNL     1      29.421 -10.734 -15.112  1.00  0.00     0.053 C 
BRANCH  13  14
HETATM   14  C   UNL     1      28.736 -11.348 -16.311  1.00  0.00    -0.027 C 
HETATM   15  C   UNL     1      29.325 -11.584 -17.501  1.00  0.00    -0.027 C 
BRANCH  15  16
HETATM   16  C   UNL     1      30.759 -11.256 -17.824  1.00  0.00     0.053 C 
BRANCH  16  17
HETATM   17  C   UNL     1      31.671 -12.423 -17.539  1.00  0.00    -0.027 C 
HETATM   18  C   UNL     1      32.608 -12.424 -16.575  1.00  0.00    -0.030 C 
BRANCH  18  19
HETATM   19  C   UNL     1      32.895 -11.266 -15.653  1.00  0.00     0.027 C 
BRANCH  19  20
HETATM   20  C   UNL     1      33.743 -11.747 -14.471  1.00  0.00     0.004 C 
BRANCH  20  21
HETATM   21  C   UNL     1      33.678 -13.271 -14.326  1.00  0.00    -0.000 C 
BRANCH  21  22
HETATM   22  C   UNL     1      33.544 -13.674 -12.852  1.00  0.00    -0.005 C 
HETATM   23  C   UNL     1      34.232 -12.664 -11.939  1.00  0.00     0.005 C 
ENDBRANCH  21  22
ENDBRANCH  20  21
ENDBRANCH  19  20
ENDBRANCH  18  19
ENDBRANCH  16  17
ENDBRANCH  15  16
ENDBRANCH  13  14
ENDBRANCH  12  13
ENDBRANCH  10  11
ENDBRANCH   9  10
ENDBRANCH   7   8
ENDBRANCH   6   7
ENDBRANCH   5   6
ENDBRANCH   3   5
ENDBRANCH   1   3
TORSDOF 15
ENDMDL
MODEL 8
REMARK VINA RESULT:      -4.7      5.623      8.743
REMARK  15 active torsions:
REMARK  status: ('A' for Active; 'I' for Inactive)
REMARK    1  A    between atoms: O_1  and  C_22 
REMARK    2  A    between atoms: C_3  and  C_4 
REMARK    3  A    between atoms: C_3  and  C_5 
REMARK    4  A    between atoms: C_4  and  C_6 
REMARK    5  A    between atoms: C_5  and  C_7 
REMARK    6  A    between atoms: C_9  and  C_10 
REMARK    7  A    between atoms: C_9  and  C_13 
REMARK    8  A    between atoms: C_10  and  C_14 
REMARK    9  A    between atoms: C_11  and  C_12 
REMARK   10  A    between atoms: C_12  and  C_16 
REMARK   11  A    between atoms: C_13  and  C_22 
REMARK   12  A    between atoms: C_15  and  C_17 
REMARK   13  A    between atoms: C_15  and  C_20 
REMARK   14  A    between atoms: C_18  and  C_19 
REMARK   15  A    between atoms: C_18  and  C_21 
ROOT
HETATM    1  O   UNL     1      33.700 -15.827  -7.472  1.00  0.00    -0.776 OA
HETATM    2  H   UNL     1      33.164 -16.627  -7.377  1.00  0.00     0.167 HD
ENDROOT
BRANCH   1   3
HETATM    3  C   UNL     1      34.889 -15.850  -8.110  1.00  0.00     0.139 C 
HETATM    4  O   UNL     1      35.780 -16.590  -7.720  1.00  0.00    -0.650 OA
BRANCH   3   5
HETATM    5  C   UNL     1      35.119 -14.953  -9.295  1.00  0.00     0.110 C 
BRANCH   5   6
HETATM    6  C   UNL     1      34.496 -13.563  -9.105  1.00  0.00     0.014 C 
BRANCH   6   7
HETATM    7  C   UNL     1      33.602 -13.149 -10.281  1.00  0.00     0.027 C 
BRANCH   7   8
HETATM    8  C   UNL     1      33.847 -14.066 -11.453  1.00  0.00    -0.030 C 
HETATM    9  C   UNL     1      33.522 -13.797 -12.731  1.00  0.00    -0.027 C 
BRANCH   9  10
HETATM   10  C   UNL     1      32.879 -12.524 -13.220  1.00  0.00     0.053 C 
BRANCH  10  11
HETATM   11  C   UNL     1      33.912 -11.444 -13.458  1.00  0.00    -0.027 C 
HETATM   12  C   UNL     1      33.747 -10.111 -13.338  1.00  0.00    -0.027 C 
BRANCH  12  13
HETATM   13  C   UNL     1      32.494  -9.385 -12.919  1.00  0.00     0.053 C 
BRANCH  13  14
HETATM   14  C   UNL     1      32.560  -9.049 -11.448  1.00  0.00    -0.027 C 
HETATM   15  C   UNL     1      31.843  -9.658 -10.482  1.00  0.00    -0.027 C 
BRANCH  15  16
HETATM   16  C   UNL     1      30.849 -10.764 -10.726  1.00  0.00     0.053 C 
BRANCH  16  17
HETATM   17  C   UNL     1      29.499 -10.216 -11.119  1.00  0.00    -0.027 C 
HETATM   18  C   UNL     1      28.868 -10.530 -12.264  1.00  0.00    -0.030 C 
BRANCH  18  19
HETATM   19  C   UNL     1      29.414 -11.456 -13.321  1.00  0.00     0.027 C 
BRANCH  19  20
HETATM   20  C   UNL     1      29.210 -10.834 -14.706  1.00  0.00     0.004 C 
BRANCH  20  21
HETATM   21  C   UNL     1      30.447 -11.028 -15.589  1.00  0.00    -0.000 C 
BRANCH  21  22
HETATM   22  C   UNL     1      30.885  -9.699 -16.216  1.00  0.00    -0.005 C 
HETATM   23  C   UNL     1      32.327  -9.770 -16.709  1.00  0.00     0.005 C 
ENDBRANCH  21  22
ENDBRANCH  20  21
ENDBRANCH  19  20
ENDBRANCH  18  19
ENDBRANCH  16  17
ENDBRANCH  15  16
ENDBRANCH  13  14
ENDBRANCH  12  13
ENDBRANCH  10  11
ENDBRANCH   9  10
ENDBRANCH   7   8
ENDBRANCH   6   7
ENDBRANCH   5   6
ENDBRANCH   3   5
ENDBRANCH   1   3
TORSDOF 15
ENDMDL
MODEL 9
REMARK VINA RESULT:      -4.7      4.538      6.525
REMARK  15 active torsions:
REMARK  status: ('A' for Active; 'I' for Inactive)
REMARK    1  A    between atoms: O_1  and  C_22 
REMARK    2  A    between atoms: C_3  and  C_4 
REMARK    3  A    between atoms: C_3  and  C_5 
REMARK    4  A    between atoms: C_4  and  C_6 
REMARK    5  A    between atoms: C_5  and  C_7 
REMARK    6  A    between atoms: C_9  and  C_10 
REMARK    7  A    between atoms: C_9  and  C_13 
REMARK    8  A    between atoms: C_10  and  C_14 
REMARK    9  A    between atoms: C_11  and  C_12 
REMARK   10  A    between atoms: C_12  and  C_16 
REMARK   11  A    between atoms: C_13  and  C_22 
REMARK   12  A    between atoms: C_15  and  C_17 
REMARK   13  A    between atoms: C_15  and  C_20 
REMARK   14  A    between atoms: C_18  and  C_19 
REMARK   15  A    between atoms: C_18  and  C_21 
ROOT
HETATM    1  O   UNL     1      35.220  -4.970 -10.582  1.00  0.00    -0.776 OA
HETATM    2  H   UNL     1      35.892  -4.313 -10.814  1.00  0.00     0.167 HD
ENDROOT
BRANCH   1   3
HETATM    3  C   UNL     1      34.637  -5.743 -11.523  1.00  0.00     0.139 C 
HETATM    4  O   UNL     1      34.996  -5.663 -12.689  1.00  0.00    -0.650 OA
BRANCH   3   5
HETATM    5  C   UNL     1      33.538  -6.692 -11.135  1.00  0.00     0.110 C 
BRANCH   5   6
HETATM    6  C   UNL     1      33.698  -8.071 -11.791  1.00  0.00     0.014 C 
BRANCH   6   7
HETATM    7  C   UNL     1      32.778  -9.131 -11.172  1.00  0.00     0.027 C 
BRANCH   7   8
HETATM    8  C   UNL     1      33.088  -9.279  -9.704  1.00  0.00    -0.030 C 
HETATM    9  C   UNL     1      32.654 -10.280  -8.915  1.00  0.00    -0.027 C 
BRANCH   9  10
HETATM   10  C   UNL     1      31.803 -11.441  -9.365  1.00  0.00     0.053 C 
BRANCH  10  11
HETATM   11  C   UNL     1      30.388 -11.316  -8.845  1.00  0.00    -0.027 C 
HETATM   12  C   UNL     1      29.321 -10.797  -9.487  1.00  0.00    -0.027 C 
BRANCH  12  13
HETATM   13  C   UNL     1      29.287 -10.236 -10.885  1.00  0.00     0.053 C 
BRANCH  13  14
HETATM   14  C   UNL     1      28.837 -11.300 -11.859  1.00  0.00    -0.027 C 
HETATM   15  C   UNL     1      29.360 -11.497 -13.086  1.00  0.00    -0.027 C 
BRANCH  15  16
HETATM   16  C   UNL     1      30.468 -10.670 -13.685  1.00  0.00     0.053 C 
BRANCH  16  17
HETATM   17  C   UNL     1      31.388 -11.511 -14.534  1.00  0.00    -0.027 C 
HETATM   18  C   UNL     1      32.469 -12.154 -14.058  1.00  0.00    -0.030 C 
BRANCH  18  19
HETATM   19  C   UNL     1      32.925 -12.121 -12.621  1.00  0.00     0.027 C 
BRANCH  19  20
HETATM   20  C   UNL     1      33.302 -13.535 -12.169  1.00  0.00     0.004 C 
BRANCH  20  21
HETATM   21  C   UNL     1      34.744 -13.588 -11.654  1.00  0.00    -0.000 C 
BRANCH  21  22
HETATM   22  C   UNL     1      35.338 -12.178 -11.550  1.00  0.00    -0.005 C 
HETATM   23  C   UNL     1      35.790 -11.875 -10.124  1.00  0.00     0.005 C 
ENDBRANCH  21  22
ENDBRANCH  20  21
ENDBRANCH  19  20
ENDBRANCH  18  19
ENDBRANCH  16  17
ENDBRANCH  15  16
ENDBRANCH  13  14
ENDBRANCH  12  13
ENDBRANCH  10  11
ENDBRANCH   9  10
ENDBRANCH   7   8
ENDBRANCH   6   7
ENDBRANCH   5   6
ENDBRANCH   3   5
ENDBRANCH   1   3
TORSDOF 15
ENDMDL
MODEL 10
REMARK VINA RESULT:      -4.7      4.242      6.497
REMARK  15 active torsions:
REMARK  status: ('A' for Active; 'I' for Inactive)
REMARK    1  A    between atoms: O_1  and  C_22 
REMARK    2  A    between atoms: C_3  and  C_4 
REMARK    3  A    between atoms: C_3  and  C_5 
REMARK    4  A    between atoms: C_4  and  C_6 
REMARK    5  A    between atoms: C_5  and  C_7 
REMARK    6  A    between atoms: C_9  and  C_10 
REMARK    7  A    between atoms: C_9  and  C_13 
REMARK    8  A    between atoms: C_10  and  C_14 
REMARK    9  A    between atoms: C_11  and  C_12 
REMARK   10  A    between atoms: C_12  and  C_16 
REMARK   11  A    between atoms: C_13  and  C_22 
REMARK   12  A    between atoms: C_15  and  C_17 
REMARK   13  A    between atoms: C_15  and  C_20 
REMARK   14  A    between atoms: C_18  and  C_19 
REMARK   15  A    between atoms: C_18  and  C_21 
ROOT
HETATM    1  O   UNL     1      28.820 -10.559  -8.671  1.00  0.00    -0.776 OA
HETATM    2  H   UNL     1      28.277 -10.210  -7.950  1.00  0.00     0.167 HD
ENDROOT
BRANCH   1   3
HETATM    3  C   UNL     1      30.129 -10.835  -8.495  1.00  0.00     0.139 C 
HETATM    4  O   UNL     1      30.618 -10.796  -7.375  1.00  0.00    -0.650 OA
BRANCH   3   5
HETATM    5  C   UNL     1      30.987 -11.179  -9.682  1.00  0.00     0.110 C 
BRANCH   5   6
HETATM    6  C   UNL     1      30.446 -10.578 -10.987  1.00  0.00     0.014 C 
BRANCH   6   7
HETATM    7  C   UNL     1      30.242 -11.631 -12.083  1.00  0.00     0.027 C 
BRANCH   7   8
HETATM    8  C   UNL     1      28.846 -11.518 -12.642  1.00  0.00    -0.030 C 
HETATM    9  C   UNL     1      28.540 -11.133 -13.896  1.00  0.00    -0.027 C 
BRANCH   9  10
HETATM   10  C   UNL     1      29.538 -10.772 -14.967  1.00  0.00     0.053 C 
BRANCH  10  11
HETATM   11  C   UNL     1      29.252 -11.513 -16.255  1.00  0.00    -0.027 C 
HETATM   12  C   UNL     1      30.139 -11.896 -17.195  1.00  0.00    -0.027 C 
BRANCH  12  13
HETATM   13  C   UNL     1      31.633 -11.692 -17.170  1.00  0.00     0.053 C 
BRANCH  13  14
HETATM   14  C   UNL     1      32.337 -12.990 -17.489  1.00  0.00    -0.027 C 
HETATM   15  C   UNL     1      33.404 -13.475 -16.822  1.00  0.00    -0.027 C 
BRANCH  15  16
HETATM   16  C   UNL     1      34.071 -12.786 -15.660  1.00  0.00     0.053 C 
BRANCH  16  17
HETATM   17  C   UNL     1      33.259 -12.923 -14.396  1.00  0.00    -0.027 C 
HETATM   18  C   UNL     1      33.432 -12.154 -13.307  1.00  0.00    -0.030 C 
BRANCH  18  19
HETATM   19  C   UNL     1      34.461 -11.059 -13.181  1.00  0.00     0.027 C 
BRANCH  19  20
HETATM   20  C   UNL     1      33.759  -9.718 -12.945  1.00  0.00     0.004 C 
BRANCH  20  21
HETATM   21  C   UNL     1      32.741  -9.422 -14.052  1.00  0.00    -0.000 C 
BRANCH  21  22
HETATM   22  C   UNL     1      33.413  -8.720 -15.238  1.00  0.00    -0.005 C 
HETATM   23  C   UNL     1      32.401  -8.400 -16.334  1.00  0.00     0.005 C 
ENDBRANCH  21  22
ENDBRANCH  20  21
ENDBRANCH  19  20
ENDBRANCH  18  19
ENDBRANCH  16  17
ENDBRANCH  15  16
ENDBRANCH  13  14
ENDBRANCH  12  13
ENDBRANCH  10  11
ENDBRANCH   9  10
ENDBRANCH   7   8
ENDBRANCH   6   7
ENDBRANCH   5   6
ENDBRANCH   3   5
ENDBRANCH   1   3
TORSDOF 15
ENDMDL
MODEL 11
REMARK VINA RESULT:      -4.7      6.670      9.620
REMARK  15 active torsions:
REMARK  status: ('A' for Active; 'I' for Inactive)
REMARK    1  A    between atoms: O_1  and  C_22 
REMARK    2  A    between atoms: C_3  and  C_4 
REMARK    3  A    between atoms: C_3  and  C_5 
REMARK    4  A    between atoms: C_4  and  C_6 
REMARK    5  A    between atoms: C_5  and  C_7 
REMARK    6  A    between atoms: C_9  and  C_10 
REMARK    7  A    between atoms: C_9  and  C_13 
REMARK    8  A    between atoms: C_10  and  C_14 
REMARK    9  A    between atoms: C_11  and  C_12 
REMARK   10  A    between atoms: C_12  and  C_16 
REMARK   11  A    between atoms: C_13  and  C_22 
REMARK   12  A    between atoms: C_15  and  C_17 
REMARK   13  A    between atoms: C_15  and  C_20 
REMARK   14  A    between atoms: C_18  and  C_19 
REMARK   15  A    between atoms: C_18  and  C_21 
ROOT
HETATM    1  O   UNL     1      35.569  -6.247 -12.366  1.00  0.00    -0.776 OA
HETATM    2  H   UNL     1      35.661  -6.789 -13.162  1.00  0.00     0.167 HD
ENDROOT
BRANCH   1   3
HETATM    3  C   UNL     1      34.415  -6.218 -11.665  1.00  0.00     0.139 C 
HETATM    4  O   UNL     1      34.248  -5.375 -10.795  1.00  0.00    -0.650 OA
BRANCH   3   5
HETATM    5  C   UNL     1      33.342  -7.233 -11.949  1.00  0.00     0.110 C 
BRANCH   5   6
HETATM    6  C   UNL     1      33.438  -8.458 -11.028  1.00  0.00     0.014 C 
BRANCH   6   7
HETATM    7  C   UNL     1      33.356  -9.783 -11.797  1.00  0.00     0.027 C 
BRANCH   7   8
HETATM    8  C   UNL     1      32.514  -9.601 -13.035  1.00  0.00    -0.030 C 
HETATM    9  C   UNL     1      31.549 -10.444 -13.449  1.00  0.00    -0.027 C 
BRANCH   9  10
HETATM   10  C   UNL     1      31.124 -11.703 -12.737  1.00  0.00     0.053 C 
BRANCH  10  11
HETATM   11  C   UNL     1      29.709 -11.586 -12.216  1.00  0.00    -0.027 C 
HETATM   12  C   UNL     1      29.310 -11.074 -11.033  1.00  0.00    -0.027 C 
BRANCH  12  13
HETATM   13  C   UNL     1      30.185 -10.477  -9.961  1.00  0.00     0.053 C 
BRANCH  13  14
HETATM   14  C   UNL     1      30.986 -11.564  -9.284  1.00  0.00    -0.027 C 
HETATM   15  C   UNL     1      32.029 -11.355  -8.454  1.00  0.00    -0.027 C 
BRANCH  15  16
HETATM   16  C   UNL     1      32.568  -9.997  -8.088  1.00  0.00     0.053 C 
BRANCH  16  17
HETATM   17  C   UNL     1      33.654 -10.096  -7.046  1.00  0.00    -0.027 C 
HETATM   18  C   UNL     1      33.468  -9.828  -5.741  1.00  0.00    -0.030 C 
BRANCH  18  19
HETATM   19  C   UNL     1      32.163  -9.381  -5.133  1.00  0.00     0.027 C 
BRANCH  19  20
HETATM   20  C   UNL     1      31.701 -10.409  -4.095  1.00  0.00     0.004 C 
BRANCH  20  21
HETATM   21  C   UNL     1      30.527 -11.241  -4.622  1.00  0.00    -0.000 C 
BRANCH  21  22
HETATM   22  C   UNL     1      29.690 -10.433  -5.621  1.00  0.00    -0.005 C 
HETATM   23  C   UNL     1      28.802 -11.346  -6.462  1.00  0.00     0.005 C 
ENDBRANCH  21  22
ENDBRANCH  20  21
ENDBRANCH  19  20
ENDBRANCH  18  19
ENDBRANCH  16  17
ENDBRANCH  15  16
ENDBRANCH  13  14
ENDBRANCH  12  13
ENDBRANCH  10  11
ENDBRANCH   9  10
ENDBRANCH   7   8
ENDBRANCH   6   7
ENDBRANCH   5   6
ENDBRANCH   3   5
ENDBRANCH   1   3
TORSDOF 15
ENDMDL
MODEL 12
REMARK VINA RESULT:      -4.7      2.703      6.443
REMARK  15 active torsions:
REMARK  status: ('A' for Active; 'I' for Inactive)
REMARK    1  A    between atoms: O_1  and  C_22 
REMARK    2  A    between atoms: C_3  and  C_4 
REMARK    3  A    between atoms: C_3  and  C_5 
REMARK    4  A    between atoms: C_4  and  C_6 
REMARK    5  A    between atoms: C_5  and  C_7 
REMARK    6  A    between atoms: C_9  and  C_10 
REMARK    7  A    between atoms: C_9  and  C_13 
REMARK    8  A    between atoms: C_10  and  C_14 
REMARK    9  A    between atoms: C_11  and  C_12 
REMARK   10  A    between atoms: C_12  and  C_16 
REMARK   11  A    between atoms: C_13  and  C_22 
REMARK   12  A    between atoms: C_15  and  C_17 
REMARK   13  A    between atoms: C_15  and  C_20 
REMARK   14  A    between atoms: C_18  and  C_19 
REMARK   15  A    between atoms: C_18  and  C_21 
ROOT
HETATM    1  O   UNL     1      34.103  -7.091 -16.099  1.00  0.00    -0.776 OA
HETATM    2  H   UNL     1      34.409  -7.106 -15.182  1.00  0.00     0.167 HD
ENDROOT
BRANCH   1   3
HETATM    3  C   UNL     1      33.639  -8.205 -16.704  1.00  0.00     0.139 C 
HETATM    4  O   UNL     1      34.205  -8.646 -17.694  1.00  0.00    -0.650 OA
BRANCH   3   5
HETATM    5  C   UNL     1      32.417  -8.895 -16.164  1.00  0.00     0.110 C 
BRANCH   5   6
HETATM    6  C   UNL     1      32.623  -9.411 -14.732  1.00  0.00     0.014 C 
BRANCH   6   7
HETATM    7  C   UNL     1      33.877 -10.283 -14.592  1.00  0.00     0.027 C 
BRANCH   7   8
HETATM    8  C   UNL     1      33.639 -11.623 -15.242  1.00  0.00    -0.030 C 
HETATM    9  C   UNL     1      33.203 -12.727 -14.607  1.00  0.00    -0.027 C 
BRANCH   9  10
HETATM   10  C   UNL     1      32.852 -12.813 -13.143  1.00  0.00     0.053 C 
BRANCH  10  11
HETATM   11  C   UNL     1      34.069 -12.587 -12.274  1.00  0.00    -0.027 C 
HETATM   12  C   UNL     1      34.135 -11.891 -11.120  1.00  0.00    -0.027 C 
BRANCH  12  13
HETATM   13  C   UNL     1      33.001 -11.192 -10.415  1.00  0.00     0.053 C 
BRANCH  13  14
HETATM   14  C   UNL     1      32.632  -9.929 -11.156  1.00  0.00    -0.027 C 
HETATM   15  C   UNL     1      31.375  -9.477 -11.338  1.00  0.00    -0.027 C 
BRANCH  15  16
HETATM   16  C   UNL     1      30.136 -10.177 -10.841  1.00  0.00     0.053 C 
BRANCH  16  17
HETATM   17  C   UNL     1      29.995 -11.549 -11.451  1.00  0.00    -0.027 C 
HETATM   18  C   UNL     1      29.415 -11.785 -12.641  1.00  0.00    -0.030 C 
BRANCH  18  19
HETATM   19  C   UNL     1      28.815 -10.726 -13.530  1.00  0.00     0.027 C 
BRANCH  19  20
HETATM   20  C   UNL     1      29.496 -10.758 -14.902  1.00  0.00     0.004 C 
BRANCH  20  21
HETATM   21  C   UNL     1      28.628 -11.482 -15.936  1.00  0.00    -0.000 C 
BRANCH  21  22
HETATM   22  C   UNL     1      29.441 -11.823 -17.190  1.00  0.00    -0.005 C 
HETATM   23  C   UNL     1      28.918 -11.069 -18.408  1.00  0.00     0.005 C 
ENDBRANCH  21  22
ENDBRANCH  20  21
ENDBRANCH  19  20
ENDBRANCH  18  19
ENDBRANCH  16  17
ENDBRANCH  15  16
ENDBRANCH  13  14
ENDBRANCH  12  13
ENDBRANCH  10  11
ENDBRANCH   9  10
ENDBRANCH   7   8
ENDBRANCH   6   7
ENDBRANCH   5   6
ENDBRANCH   3   5
ENDBRANCH   1   3
TORSDOF 15
ENDMDL
MODEL 13
REMARK VINA RESULT:      -4.7      3.992      5.765
REMARK  15 active torsions:
REMARK  status: ('A' for Active; 'I' for Inactive)
REMARK    1  A    between atoms: O_1  and  C_22 
REMARK    2  A    between atoms: C_3  and  C_4 
REMARK    3  A    between atoms: C_3  and  C_5 
REMARK    4  A    between atoms: C_4  and  C_6 
REMARK    5  A    between atoms: C_5  and  C_7 
REMARK    6  A    between atoms: C_9  and  C_10 
REMARK    7  A    between atoms: C_9  and  C_13 
REMARK    8  A    between atoms: C_10  and  C_14 
REMARK    9  A    between atoms: C_11  and  C_12 
REMARK   10  A    between atoms: C_12  and  C_16 
REMARK   11  A    between atoms: C_13  and  C_22 
REMARK   12  A    between atoms: C_15  and  C_17 
REMARK   13  A    between atoms: C_15  and  C_20 
REMARK   14  A    between atoms: C_18  and  C_19 
REMARK   15  A    between atoms: C_18  and  C_21 
ROOT
HETATM    1  O   UNL     1      35.625  -6.083 -12.493  1.00  0.00    -0.776 OA
HETATM    2  H   UNL     1      36.302  -5.409 -12.644  1.00  0.00     0.167 HD
ENDROOT
BRANCH   1   3
HETATM    3  C   UNL     1      34.575  -5.854 -11.675  1.00  0.00     0.139 C 
HETATM    4  O   UNL     1      34.320  -4.716 -11.310  1.00  0.00    -0.650 OA
BRANCH   3   5
HETATM    5  C   UNL     1      33.729  -7.006 -11.207  1.00  0.00     0.110 C 
BRANCH   5   6
HETATM    6  C   UNL     1      33.699  -8.159 -12.219  1.00  0.00     0.014 C 
BRANCH   6   7
HETATM    7  C   UNL     1      33.051  -9.428 -11.651  1.00  0.00     0.027 C 
BRANCH   7   8
HETATM    8  C   UNL     1      31.644  -9.123 -11.201  1.00  0.00    -0.030 C 
HETATM    9  C   UNL     1      30.579  -9.926 -11.384  1.00  0.00    -0.027 C 
BRANCH   9  10
HETATM   10  C   UNL     1      30.608 -11.280 -12.047  1.00  0.00     0.053 C 
BRANCH  10  11
HETATM   11  C   UNL     1      29.734 -11.305 -13.281  1.00  0.00    -0.027 C 
HETATM   12  C   UNL     1      30.096 -11.023 -14.549  1.00  0.00    -0.027 C 
BRANCH  12  13
HETATM   13  C   UNL     1      31.469 -10.634 -15.035  1.00  0.00     0.053 C 
BRANCH  13  14
HETATM   14  C   UNL     1      32.143 -11.821 -15.683  1.00  0.00    -0.027 C 
HETATM   15  C   UNL     1      33.221 -12.463 -15.189  1.00  0.00    -0.027 C 
BRANCH  15  16
HETATM   16  C   UNL     1      33.932 -12.083 -13.917  1.00  0.00     0.053 C 
BRANCH  16  17
HETATM   17  C   UNL     1      35.040 -11.094 -14.177  1.00  0.00    -0.027 C 
HETATM   18  C   UNL     1      36.346 -11.372 -14.020  1.00  0.00    -0.030 C 
BRANCH  18  19
HETATM   19  C   UNL     1      36.893 -12.697 -13.552  1.00  0.00     0.027 C 
BRANCH  19  20
HETATM   20  C   UNL     1      38.235 -12.479 -12.845  1.00  0.00     0.004 C 
BRANCH  20  21
HETATM   21  C   UNL     1      39.359 -13.259 -13.535  1.00  0.00    -0.000 C 
BRANCH  21  22
HETATM   22  C   UNL     1      40.298 -12.311 -14.291  1.00  0.00    -0.005 C 
HETATM   23  C   UNL     1      39.804 -12.065 -15.713  1.00  0.00     0.005 C 
ENDBRANCH  21  22
ENDBRANCH  20  21
ENDBRANCH  19  20
ENDBRANCH  18  19
ENDBRANCH  16  17
ENDBRANCH  15  16
ENDBRANCH  13  14
ENDBRANCH  12  13
ENDBRANCH  10  11
ENDBRANCH   9  10
ENDBRANCH   7   8
ENDBRANCH   6   7
ENDBRANCH   5   6
ENDBRANCH   3   5
ENDBRANCH   1   3
TORSDOF 15
ENDMDL
MODEL 14
REMARK VINA RESULT:      -4.7      4.920      7.874
REMARK  15 active torsions:
REMARK  status: ('A' for Active; 'I' for Inactive)
REMARK    1  A    between atoms: O_1  and  C_22 
REMARK    2  A    between atoms: C_3  and  C_4 
REMARK    3  A    between atoms: C_3  and  C_5 
REMARK    4  A    between atoms: C_4  and  C_6 
REMARK    5  A    between atoms: C_5  and  C_7 
REMARK    6  A    between atoms: C_9  and  C_10 
REMARK    7  A    between atoms: C_9  and  C_13 
REMARK    8  A    between atoms: C_10  and  C_14 
REMARK    9  A    between atoms: C_11  and  C_12 
REMARK   10  A    between atoms: C_12  and  C_16 
REMARK   11  A    between atoms: C_13  and  C_22 
REMARK   12  A    between atoms: C_15  and  C_17 
REMARK   13  A    between atoms: C_15  and  C_20 
REMARK   14  A    between atoms: C_18  and  C_19 
REMARK   15  A    between atoms: C_18  and  C_21 
ROOT
HETATM    1  O   UNL     1      35.349 -13.258 -14.090  1.00  0.00    -0.776 OA
HETATM    2  H   UNL     1      35.180 -12.307 -14.145  1.00  0.00     0.167 HD
ENDROOT
BRANCH   1   3
HETATM    3  C   UNL     1      34.517 -14.081 -13.418  1.00  0.00     0.139 C 
HETATM    4  O   UNL     1      34.440 -15.261 -13.728  1.00  0.00    -0.650 OA
BRANCH   3   5
HETATM    5  C   UNL     1      33.677 -13.541 -12.294  1.00  0.00     0.110 C 
BRANCH   5   6
HETATM    6  C   UNL     1      33.177 -12.116 -12.572  1.00  0.00     0.014 C 
BRANCH   6   7
HETATM    7  C   UNL     1      34.097 -11.040 -11.981  1.00  0.00     0.027 C 
BRANCH   7   8
HETATM    8  C   UNL     1      33.412  -9.698 -12.041  1.00  0.00    -0.030 C 
HETATM    9  C   UNL     1      33.248  -8.958 -13.154  1.00  0.00    -0.027 C 
BRANCH   9  10
HETATM   10  C   UNL     1      33.697  -9.351 -14.538  1.00  0.00     0.053 C 
BRANCH  10  11
HETATM   11  C   UNL     1      32.643  -9.019 -15.572  1.00  0.00    -0.027 C 
HETATM   12  C   UNL     1      31.505  -9.695 -15.829  1.00  0.00    -0.027 C 
BRANCH  12  13
HETATM   13  C   UNL     1      31.007 -10.934 -15.129  1.00  0.00     0.053 C 
BRANCH  13  14
HETATM   14  C   UNL     1      29.514 -10.844 -14.917  1.00  0.00    -0.027 C 
HETATM   15  C   UNL     1      28.885 -11.055 -13.743  1.00  0.00    -0.027 C 
BRANCH  15  16
HETATM   16  C   UNL     1      29.578 -11.432 -12.459  1.00  0.00     0.053 C 
BRANCH  16  17
HETATM   17  C   UNL     1      29.672 -10.258 -11.517  1.00  0.00    -0.027 C 
HETATM   18  C   UNL     1      30.325 -10.290 -10.342  1.00  0.00    -0.030 C 
BRANCH  18  19
HETATM   19  C   UNL     1      31.043 -11.496  -9.790  1.00  0.00     0.027 C 
BRANCH  19  20
HETATM   20  C   UNL     1      31.466 -11.225  -8.343  1.00  0.00     0.004 C 
BRANCH  20  21
HETATM   21  C   UNL     1      30.324 -10.590  -7.541  1.00  0.00    -0.000 C 
BRANCH  21  22
HETATM   22  C   UNL     1      29.308 -11.652  -7.103  1.00  0.00    -0.005 C 
HETATM   23  C   UNL     1      27.925 -11.361  -7.677  1.00  0.00     0.005 C 
ENDBRANCH  21  22
ENDBRANCH  20  21
ENDBRANCH  19  20
ENDBRANCH  18  19
ENDBRANCH  16  17
ENDBRANCH  15  16
ENDBRANCH  13  14
ENDBRANCH  12  13
ENDBRANCH  10  11
ENDBRANCH   9  10
ENDBRANCH   7   8
ENDBRANCH   6   7
ENDBRANCH   5   6
ENDBRANCH   3   5
ENDBRANCH   1   3
TORSDOF 15
ENDMDL
MODEL 15
REMARK VINA RESULT:      -4.6      9.755     12.196
REMARK  15 active torsions:
REMARK  status: ('A' for Active; 'I' for Inactive)
REMARK    1  A    between atoms: O_1  and  C_22 
REMARK    2  A    between atoms: C_3  and  C_4 
REMARK    3  A    between atoms: C_3  and  C_5 
REMARK    4  A    between atoms: C_4  and  C_6 
REMARK    5  A    between atoms: C_5  and  C_7 
REMARK    6  A    between atoms: C_9  and  C_10 
REMARK    7  A    between atoms: C_9  and  C_13 
REMARK    8  A    between atoms: C_10  and  C_14 
REMARK    9  A    between atoms: C_11  and  C_12 
REMARK   10  A    between atoms: C_12  and  C_16 
REMARK   11  A    between atoms: C_13  and  C_22 
REMARK   12  A    between atoms: C_15  and  C_17 
REMARK   13  A    between atoms: C_15  and  C_20 
REMARK   14  A    between atoms: C_18  and  C_19 
REMARK   15  A    between atoms: C_18  and  C_21 
ROOT
HETATM    1  O   UNL     1      34.766  -7.098  -2.625  1.00  0.00    -0.776 OA
HETATM    2  H   UNL     1      35.113  -7.145  -3.527  1.00  0.00     0.167 HD
ENDROOT
BRANCH   1   3
HETATM    3  C   UNL     1      33.863  -7.993  -2.172  1.00  0.00     0.139 C 
HETATM    4  O   UNL     1      33.437  -7.909  -1.029  1.00  0.00    -0.650 OA
BRANCH   3   5
HETATM    5  C   UNL     1      33.391  -9.100  -3.074  1.00  0.00     0.110 C 
BRANCH   5   6
HETATM    6  C   UNL     1      33.821  -8.889  -4.532  1.00  0.00     0.014 C 
BRANCH   6   7
HETATM    7  C   UNL     1      32.645  -8.978  -5.514  1.00  0.00     0.027 C 
BRANCH   7   8
HETATM    8  C   UNL     1      33.053  -8.406  -6.848  1.00  0.00    -0.030 C 
HETATM    9  C   UNL     1      33.045  -9.076  -8.016  1.00  0.00    -0.027 C 
BRANCH   9  10
HETATM   10  C   UNL     1      32.604 -10.506  -8.200  1.00  0.00     0.053 C 
BRANCH  10  11
HETATM   11  C   UNL     1      33.092 -11.064  -9.519  1.00  0.00    -0.027 C 
HETATM   12  C   UNL     1      32.537 -10.894 -10.737  1.00  0.00    -0.027 C 
BRANCH  12  13
HETATM   13  C   UNL     1      31.308 -10.088 -11.070  1.00  0.00     0.053 C 
BRANCH  13  14
HETATM   14  C   UNL     1      30.121 -11.004 -11.248  1.00  0.00    -0.027 C 
HETATM   15  C   UNL     1      29.154 -11.206 -10.329  1.00  0.00    -0.027 C 
BRANCH  15  16
HETATM   16  C   UNL     1      29.119 -10.556  -8.970  1.00  0.00     0.053 C 
BRANCH  16  17
HETATM   17  C   UNL     1      28.165 -11.266  -8.042  1.00  0.00    -0.027 C 
HETATM   18  C   UNL     1      28.464 -11.606  -6.776  1.00  0.00    -0.030 C 
BRANCH  18  19
HETATM   19  C   UNL     1      29.788 -11.341  -6.105  1.00  0.00     0.027 C 
BRANCH  19  20
HETATM   20  C   UNL     1      29.550 -10.874  -4.665  1.00  0.00     0.004 C 
BRANCH  20  21
HETATM   21  C   UNL     1      30.612 -11.441  -3.716  1.00  0.00    -0.000 C 
BRANCH  21  22
HETATM   22  C   UNL     1      30.291 -11.080  -2.260  1.00  0.00    -0.005 C 
HETATM   23  C   UNL     1      28.929 -11.628  -1.845  1.00  0.00     0.005 C 
ENDBRANCH  21  22
ENDBRANCH  20  21
ENDBRANCH  19  20
ENDBRANCH  18  19
ENDBRANCH  16  17
ENDBRANCH  15  16
ENDBRANCH  13  14
ENDBRANCH  12  13
ENDBRANCH  10  11
ENDBRANCH   9  10
ENDBRANCH   7   8
ENDBRANCH   6   7
ENDBRANCH   5   6
ENDBRANCH   3   5
ENDBRANCH   1   3
TORSDOF 15
ENDMDL
MODEL 16
REMARK VINA RESULT:      -4.6      6.383      9.408
REMARK  15 active torsions:
REMARK  status: ('A' for Active; 'I' for Inactive)
REMARK    1  A    between atoms: O_1  and  C_22 
REMARK    2  A    between atoms: C_3  and  C_4 
REMARK    3  A    between atoms: C_3  and  C_5 
REMARK    4  A    between atoms: C_4  and  C_6 
REMARK    5  A    between atoms: C_5  and  C_7 
REMARK    6  A    between atoms: C_9  and  C_10 
REMARK    7  A    between atoms: C_9  and  C_13 
REMARK    8  A    between atoms: C_10  and  C_14 
REMARK    9  A    between atoms: C_11  and  C_12 
REMARK   10  A    between atoms: C_12  and  C_16 
REMARK   11  A    between atoms: C_13  and  C_22 
REMARK   12  A    between atoms: C_15  and  C_17 
REMARK   13  A    between atoms: C_15  and  C_20 
REMARK   14  A    between atoms: C_18  and  C_19 
REMARK   15  A    between atoms: C_18  and  C_21 
ROOT
HETATM    1  O   UNL     1      29.057 -10.937 -18.998  1.00  0.00    -0.776 OA
HETATM    2  H   UNL     1      28.540 -10.779 -19.801  1.00  0.00     0.167 HD
ENDROOT
BRANCH   1   3
HETATM    3  C   UNL     1      28.478 -10.938 -17.778  1.00  0.00     0.139 C 
HETATM    4  O   UNL     1      27.332 -11.342 -17.644  1.00  0.00    -0.650 OA
BRANCH   3   5
HETATM    5  C   UNL     1      29.243 -10.430 -16.588  1.00  0.00     0.110 C 
BRANCH   5   6
HETATM    6  C   UNL     1      30.751 -10.333 -16.860  1.00  0.00     0.014 C 
BRANCH   6   7
HETATM    7  C   UNL     1      31.554  -9.948 -15.611  1.00  0.00     0.027 C 
BRANCH   7   8
HETATM    8  C   UNL     1      32.557  -8.878 -15.962  1.00  0.00    -0.030 C 
HETATM    9  C   UNL     1      33.662  -8.586 -15.249  1.00  0.00    -0.027 C 
BRANCH   9  10
HETATM   10  C   UNL     1      34.104  -9.291 -13.992  1.00  0.00     0.053 C 
BRANCH  10  11
HETATM   11  C   UNL     1      33.564  -8.603 -12.758  1.00  0.00    -0.027 C 
HETATM   12  C   UNL     1      32.682  -9.094 -11.864  1.00  0.00    -0.027 C 
BRANCH  12  13
HETATM   13  C   UNL     1      32.042 -10.459 -11.877  1.00  0.00     0.053 C 
BRANCH  13  14
HETATM   14  C   UNL     1      30.593 -10.347 -12.290  1.00  0.00    -0.027 C 
HETATM   15  C   UNL     1      29.542 -10.398 -11.446  1.00  0.00    -0.027 C 
BRANCH  15  16
HETATM   16  C   UNL     1      29.652 -10.593  -9.956  1.00  0.00     0.053 C 
BRANCH  16  17
HETATM   17  C   UNL     1      28.495 -11.397  -9.417  1.00  0.00    -0.027 C 
HETATM   18  C   UNL     1      28.121 -11.399  -8.126  1.00  0.00    -0.030 C 
BRANCH  18  19
HETATM   19  C   UNL     1      28.802 -10.616  -7.032  1.00  0.00     0.027 C 
BRANCH  19  20
HETATM   20  C   UNL     1      28.988 -11.508  -5.800  1.00  0.00     0.004 C 
BRANCH  20  21
HETATM   21  C   UNL     1      30.316 -11.211  -5.096  1.00  0.00    -0.000 C 
BRANCH  21  22
HETATM   22  C   UNL     1      30.076 -10.588  -3.716  1.00  0.00    -0.005 C 
HETATM   23  C   UNL     1      30.035 -11.657  -2.628  1.00  0.00     0.005 C 
ENDBRANCH  21  22
ENDBRANCH  20  21
ENDBRANCH  19  20
ENDBRANCH  18  19
ENDBRANCH  16  17
ENDBRANCH  15  16
ENDBRANCH  13  14
ENDBRANCH  12  13
ENDBRANCH  10  11
ENDBRANCH   9  10
ENDBRANCH   7   8
ENDBRANCH   6   7
ENDBRANCH   5   6
ENDBRANCH   3   5
ENDBRANCH   1   3
TORSDOF 15
ENDMDL
MODEL 17
REMARK VINA RESULT:      -4.6      6.736      9.372
REMARK  15 active torsions:
REMARK  status: ('A' for Active; 'I' for Inactive)
REMARK    1  A    between atoms: O_1  and  C_22 
REMARK    2  A    between atoms: C_3  and  C_4 
REMARK    3  A    between atoms: C_3  and  C_5 
REMARK    4  A    between atoms: C_4  and  C_6 
REMARK    5  A    between atoms: C_5  and  C_7 
REMARK    6  A    between atoms: C_9  and  C_10 
REMARK    7  A    between atoms: C_9  and  C_13 
REMARK    8  A    between atoms: C_10  and  C_14 
REMARK    9  A    between atoms: C_11  and  C_12 
REMARK   10  A    between atoms: C_12  and  C_16 
REMARK   11  A    between atoms: C_13  and  C_22 
REMARK   12  A    between atoms: C_15  and  C_17 
REMARK   13  A    between atoms: C_15  and  C_20 
REMARK   14  A    between atoms: C_18  and  C_19 
REMARK   15  A    between atoms: C_18  and  C_21 
ROOT
HETATM    1  O   UNL     1      34.025 -12.097  -8.921  1.00  0.00    -0.776 OA
HETATM    2  H   UNL     1      33.466 -12.656  -9.478  1.00  0.00     0.167 HD
ENDROOT
BRANCH   1   3
HETATM    3  C   UNL     1      34.570 -10.955  -9.394  1.00  0.00     0.139 C 
HETATM    4  O   UNL     1      35.397 -10.998 -10.293  1.00  0.00    -0.650 OA
BRANCH   3   5
HETATM    5  C   UNL     1      34.164  -9.633  -8.804  1.00  0.00     0.110 C 
BRANCH   5   6
HETATM    6  C   UNL     1      32.659  -9.365  -8.950  1.00  0.00     0.014 C 
BRANCH   6   7
HETATM    7  C   UNL     1      32.173  -9.498 -10.399  1.00  0.00     0.027 C 
BRANCH   7   8
HETATM    8  C   UNL     1      32.787  -8.409 -11.243  1.00  0.00    -0.030 C 
HETATM    9  C   UNL     1      33.361  -8.591 -12.448  1.00  0.00    -0.027 C 
BRANCH   9  10
HETATM   10  C   UNL     1      33.469  -9.907 -13.175  1.00  0.00     0.053 C 
BRANCH  10  11
HETATM   11  C   UNL     1      32.461  -9.997 -14.299  1.00  0.00    -0.027 C 
HETATM   12  C   UNL     1      31.295 -10.674 -14.303  1.00  0.00    -0.027 C 
BRANCH  12  13
HETATM   13  C   UNL     1      30.714 -11.488 -13.174  1.00  0.00     0.053 C 
BRANCH  13  14
HETATM   14  C   UNL     1      29.236 -11.207 -13.042  1.00  0.00    -0.027 C 
HETATM   15  C   UNL     1      28.558 -11.162 -11.876  1.00  0.00    -0.027 C 
BRANCH  15  16
HETATM   16  C   UNL     1      29.172 -11.402 -10.522  1.00  0.00     0.053 C 
BRANCH  16  17
HETATM   17  C   UNL     1      28.134 -11.355  -9.428  1.00  0.00    -0.027 C 
HETATM   18  C   UNL     1      28.428 -11.313  -8.117  1.00  0.00    -0.030 C 
BRANCH  18  19
HETATM   19  C   UNL     1      29.824 -11.316  -7.548  1.00  0.00     0.027 C 
BRANCH  19  20
HETATM   20  C   UNL     1      29.784 -10.873  -6.082  1.00  0.00     0.004 C 
BRANCH  20  21
HETATM   21  C   UNL     1      31.183 -10.514  -5.572  1.00  0.00    -0.000 C 
BRANCH  21  22
HETATM   22  C   UNL     1      31.471 -11.205  -4.234  1.00  0.00    -0.005 C 
HETATM   23  C   UNL     1      30.214 -11.281  -3.372  1.00  0.00     0.005 C 
ENDBRANCH  21  22
ENDBRANCH  20  21
ENDBRANCH  19  20
ENDBRANCH  18  19
ENDBRANCH  16  17
ENDBRANCH  15  16
ENDBRANCH  13  14
ENDBRANCH  12  13
ENDBRANCH  10  11
ENDBRANCH   9  10
ENDBRANCH   7   8
ENDBRANCH   6   7
ENDBRANCH   5   6
ENDBRANCH   3   5
ENDBRANCH   1   3
TORSDOF 15
ENDMDL
MODEL 18
REMARK VINA RESULT:      -4.6      4.134      6.935
REMARK  15 active torsions:
REMARK  status: ('A' for Active; 'I' for Inactive)
REMARK    1  A    between atoms: O_1  and  C_22 
REMARK    2  A    between atoms: C_3  and  C_4 
REMARK    3  A    between atoms: C_3  and  C_5 
REMARK    4  A    between atoms: C_4  and  C_6 
REMARK    5  A    between atoms: C_5  and  C_7 
REMARK    6  A    between atoms: C_9  and  C_10 
REMARK    7  A    between atoms: C_9  and  C_13 
REMARK    8  A    between atoms: C_10  and  C_14 
REMARK    9  A    between atoms: C_11  and  C_12 
REMARK   10  A    between atoms: C_12  and  C_16 
REMARK   11  A    between atoms: C_13  and  C_22 
REMARK   12  A    between atoms: C_15  and  C_17 
REMARK   13  A    between atoms: C_15  and  C_20 
REMARK   14  A    between atoms: C_18  and  C_19 
REMARK   15  A    between atoms: C_18  and  C_21 
ROOT
HETATM    1  O   UNL     1      27.107 -11.560 -17.543  1.00  0.00    -0.776 OA
HETATM    2  H   UNL     1      26.770 -12.465 -17.473  1.00  0.00     0.167 HD
ENDROOT
BRANCH   1   3
HETATM    3  C   UNL     1      28.426 -11.310 -17.686  1.00  0.00     0.139 C 
HETATM    4  O   UNL     1      28.806 -10.471 -18.489  1.00  0.00    -0.650 OA
BRANCH   3   5
HETATM    5  C   UNL     1      29.425 -12.074 -16.862  1.00  0.00     0.110 C 
BRANCH   5   6
HETATM    6  C   UNL     1      30.230 -11.162 -15.925  1.00  0.00     0.014 C 
BRANCH   6   7
HETATM    7  C   UNL     1      29.338 -10.378 -14.953  1.00  0.00     0.027 C 
BRANCH   7   8
HETATM    8  C   UNL     1      28.531 -11.339 -14.117  1.00  0.00    -0.030 C 
HETATM    9  C   UNL     1      28.886 -11.800 -12.903  1.00  0.00    -0.027 C 
BRANCH   9  10
HETATM   10  C   UNL     1      30.139 -11.420 -12.156  1.00  0.00     0.053 C 
BRANCH  10  11
HETATM   11  C   UNL     1      29.818 -10.919 -10.766  1.00  0.00    -0.027 C 
HETATM   12  C   UNL     1      30.689 -10.607  -9.784  1.00  0.00    -0.027 C 
BRANCH  12  13
HETATM   13  C   UNL     1      32.193 -10.668  -9.853  1.00  0.00     0.053 C 
BRANCH  13  14
HETATM   14  C   UNL     1      32.764  -9.271  -9.934  1.00  0.00    -0.027 C 
HETATM   15  C   UNL     1      32.966  -8.583 -11.077  1.00  0.00    -0.027 C 
BRANCH  15  16
HETATM   16  C   UNL     1      32.668  -9.112 -12.456  1.00  0.00     0.053 C 
BRANCH  16  17
HETATM   17  C   UNL     1      33.866  -8.992 -13.364  1.00  0.00    -0.027 C 
HETATM   18  C   UNL     1      34.233  -9.935 -14.249  1.00  0.00    -0.030 C 
BRANCH  18  19
HETATM   19  C   UNL     1      33.517 -11.246 -14.456  1.00  0.00     0.027 C 
BRANCH  19  20
HETATM   20  C   UNL     1      34.335 -12.383 -13.835  1.00  0.00     0.004 C 
BRANCH  20  21
HETATM   21  C   UNL     1      34.245 -12.360 -12.306  1.00  0.00    -0.000 C 
BRANCH  21  22
HETATM   22  C   UNL     1      33.512 -13.601 -11.783  1.00  0.00    -0.005 C 
HETATM   23  C   UNL     1      34.076 -14.876 -12.403  1.00  0.00     0.005 C 
ENDBRANCH  21  22
ENDBRANCH  20  21
ENDBRANCH  19  20
ENDBRANCH  18  19
ENDBRANCH  16  17
ENDBRANCH  15  16
ENDBRANCH  13  14
ENDBRANCH  12  13
ENDBRANCH  10  11
ENDBRANCH   9  10
ENDBRANCH   7   8
ENDBRANCH   6   7
ENDBRANCH   5   6
ENDBRANCH   3   5
ENDBRANCH   1   3
TORSDOF 15
ENDMDL
MODEL 19
REMARK VINA RESULT:      -4.6      3.120      5.013
REMARK  15 active torsions:
REMARK  status: ('A' for Active; 'I' for Inactive)
REMARK    1  A    between atoms: O_1  and  C_22 
REMARK    2  A    between atoms: C_3  and  C_4 
REMARK    3  A    between atoms: C_3  and  C_5 
REMARK    4  A    between atoms: C_4  and  C_6 
REMARK    5  A    between atoms: C_5  and  C_7 
REMARK    6  A    between atoms: C_9  and  C_10 
REMARK    7  A    between atoms: C_9  and  C_13 
REMARK    8  A    between atoms: C_10  and  C_14 
REMARK    9  A    between atoms: C_11  and  C_12 
REMARK   10  A    between atoms: C_12  and  C_16 
REMARK   11  A    between atoms: C_13  and  C_22 
REMARK   12  A    between atoms: C_15  and  C_17 
REMARK   13  A    between atoms: C_15  and  C_20 
REMARK   14  A    between atoms: C_18  and  C_19 
REMARK   15  A    between atoms: C_18  and  C_21 
ROOT
HETATM    1  O   UNL     1      29.541 -11.504 -18.335  1.00  0.00    -0.776 OA
HETATM    2  H   UNL     1      29.885 -10.966 -19.062  1.00  0.00     0.167 HD
ENDROOT
BRANCH   1   3
HETATM    3  C   UNL     1      28.686 -10.992 -17.425  1.00  0.00     0.139 C 
HETATM    4  O   UNL     1      27.480 -11.114 -17.581  1.00  0.00    -0.650 OA
BRANCH   3   5
HETATM    5  C   UNL     1      29.222 -10.262 -16.224  1.00  0.00     0.110 C 
BRANCH   5   6
HETATM    6  C   UNL     1      30.017 -11.183 -15.288  1.00  0.00     0.014 C 
BRANCH   6   7
HETATM    7  C   UNL     1      29.648 -10.987 -13.812  1.00  0.00     0.027 C 
BRANCH   7   8
HETATM    8  C   UNL     1      30.673 -11.665 -12.937  1.00  0.00    -0.030 C 
HETATM    9  C   UNL     1      31.731 -11.058 -12.368  1.00  0.00    -0.027 C 
BRANCH   9  10
HETATM   10  C   UNL     1      32.065  -9.592 -12.483  1.00  0.00     0.053 C 
BRANCH  10  11
HETATM   11  C   UNL     1      33.423  -9.387 -13.116  1.00  0.00    -0.027 C 
HETATM   12  C   UNL     1      33.693  -9.099 -14.405  1.00  0.00    -0.027 C 
BRANCH  12  13
HETATM   13  C   UNL     1      32.695  -8.893 -15.517  1.00  0.00     0.053 C 
BRANCH  13  14
HETATM   14  C   UNL     1      33.376  -8.273 -16.714  1.00  0.00    -0.027 C 
HETATM   15  C   UNL     1      33.464  -8.841 -17.934  1.00  0.00    -0.027 C 
BRANCH  15  16
HETATM   16  C   UNL     1      32.906 -10.196 -18.287  1.00  0.00     0.053 C 
BRANCH  16  17
HETATM   17  C   UNL     1      33.999 -11.228 -18.410  1.00  0.00    -0.027 C 
HETATM   18  C   UNL     1      33.982 -12.417 -17.783  1.00  0.00    -0.030 C 
BRANCH  18  19
HETATM   19  C   UNL     1      32.884 -12.888 -16.863  1.00  0.00     0.027 C 
BRANCH  19  20
HETATM   20  C   UNL     1      33.279 -12.613 -15.408  1.00  0.00     0.004 C 
BRANCH  20  21
HETATM   21  C   UNL     1      34.801 -12.644 -15.231  1.00  0.00    -0.000 C 
BRANCH  21  22
HETATM   22  C   UNL     1      35.185 -13.356 -13.929  1.00  0.00    -0.005 C 
HETATM   23  C   UNL     1      35.514 -12.353 -12.828  1.00  0.00     0.005 C 
ENDBRANCH  21  22
ENDBRANCH  20  21
ENDBRANCH  19  20
ENDBRANCH  18  19
ENDBRANCH  16  17
ENDBRANCH  15  16
ENDBRANCH  13  14
ENDBRANCH  12  13
ENDBRANCH  10  11
ENDBRANCH   9  10
ENDBRANCH   7   8
ENDBRANCH   6   7
ENDBRANCH   5   6
ENDBRANCH   3   5
ENDBRANCH   1   3
TORSDOF 15
ENDMDL
MODEL 20
REMARK VINA RESULT:      -4.5      9.476     12.200
REMARK  15 active torsions:
REMARK  status: ('A' for Active; 'I' for Inactive)
REMARK    1  A    between atoms: O_1  and  C_22 
REMARK    2  A    between atoms: C_3  and  C_4 
REMARK    3  A    between atoms: C_3  and  C_5 
REMARK    4  A    between atoms: C_4  and  C_6 
REMARK    5  A    between atoms: C_5  and  C_7 
REMARK    6  A    between atoms: C_9  and  C_10 
REMARK    7  A    between atoms: C_9  and  C_13 
REMARK    8  A    between atoms: C_10  and  C_14 
REMARK    9  A    between atoms: C_11  and  C_12 
REMARK   10  A    between atoms: C_12  and  C_16 
REMARK   11  A    between atoms: C_13  and  C_22 
REMARK   12  A    between atoms: C_15  and  C_17 
REMARK   13  A    between atoms: C_15  and  C_20 
REMARK   14  A    between atoms: C_18  and  C_19 
REMARK   15  A    between atoms: C_18  and  C_21 
ROOT
HETATM    1  O   UNL     1      28.719 -11.061 -10.048  1.00  0.00    -0.776 OA
HETATM    2  H   UNL     1      28.014 -10.707 -10.607  1.00  0.00     0.167 HD
ENDROOT
BRANCH   1   3
HETATM    3  C   UNL     1      28.594 -11.108  -8.704  1.00  0.00     0.139 C 
HETATM    4  O   UNL     1      27.521 -11.404  -8.199  1.00  0.00    -0.650 OA
BRANCH   3   5
HETATM    5  C   UNL     1      29.776 -10.785  -7.832  1.00  0.00     0.110 C 
BRANCH   5   6
HETATM    6  C   UNL     1      29.393 -10.668  -6.350  1.00  0.00     0.014 C 
BRANCH   6   7
HETATM    7  C   UNL     1      30.448 -11.274  -5.416  1.00  0.00     0.027 C 
BRANCH   7   8
HETATM    8  C   UNL     1      29.989 -11.154  -3.985  1.00  0.00    -0.030 C 
HETATM    9  C   UNL     1      30.696 -11.544  -2.907  1.00  0.00    -0.027 C 
BRANCH   9  10
HETATM   10  C   UNL     1      32.078 -12.146  -2.939  1.00  0.00     0.053 C 
BRANCH  10  11
HETATM   11  C   UNL     1      33.120 -11.153  -2.474  1.00  0.00    -0.027 C 
HETATM   12  C   UNL     1      33.860 -10.322  -3.236  1.00  0.00    -0.027 C 
BRANCH  12  13
HETATM   13  C   UNL     1      33.805 -10.175  -4.736  1.00  0.00     0.053 C 
BRANCH  13  14
HETATM   14  C   UNL     1      33.606  -8.724  -5.106  1.00  0.00    -0.027 C 
HETATM   15  C   UNL     1      33.169  -8.285  -6.304  1.00  0.00    -0.027 C 
BRANCH  15  16
HETATM   16  C   UNL     1      32.828  -9.178  -7.469  1.00  0.00     0.053 C 
BRANCH  16  17
HETATM   17  C   UNL     1      33.981  -9.293  -8.434  1.00  0.00    -0.027 C 
HETATM   18  C   UNL     1      34.055 -10.218  -9.406  1.00  0.00    -0.030 C 
BRANCH  18  19
HETATM   19  C   UNL     1      33.013 -11.276  -9.669  1.00  0.00     0.027 C 
BRANCH  19  20
HETATM   20  C   UNL     1      33.472 -12.610  -9.072  1.00  0.00     0.004 C 
BRANCH  20  21
HETATM   21  C   UNL     1      32.602 -13.012  -7.876  1.00  0.00    -0.000 C 
BRANCH  21  22
HETATM   22  C   UNL     1      33.449 -13.148  -6.606  1.00  0.00    -0.005 C 
HETATM   23  C   UNL     1      34.928 -12.914  -6.901  1.00  0.00     0.005 C 
ENDBRANCH  21  22
ENDBRANCH  20  21
ENDBRANCH  19  20
ENDBRANCH  18  19
ENDBRANCH  16  17
ENDBRANCH  15  16
ENDBRANCH  13  14
ENDBRANCH  12  13
ENDBRANCH  10  11
ENDBRANCH   9  10
ENDBRANCH   7   8
ENDBRANCH   6   7
ENDBRANCH   5   6
ENDBRANCH   3   5
ENDBRANCH   1   3
TORSDOF 15
ENDMDL
