MODEL 1
REMARK VINA RESULT:      -5.0      0.000      0.000
REMARK  15 active torsions:
REMARK  status: ('A' for Active; 'I' for Inactive)
REMARK    1  A    between atoms: O_1  and  C_18 
REMARK    2  A    between atoms: C_3  and  C_4 
REMARK    3  A    between atoms: C_3  and  C_5 
REMARK    4  A    between atoms: C_4  and  C_6 
REMARK    5  A    between atoms: C_5  and  C_7 
REMARK    6  A    between atoms: C_6  and  C_8 
REMARK    7  A    between atoms: C_7  and  C_9 
REMARK    8  A    between atoms: C_8  and  C_10 
REMARK    9  A    between atoms: C_9  and  C_11 
REMARK   10  A    between atoms: C_10  and  C_12 
REMARK   11  A    between atoms: C_11  and  C_13 
REMARK   12  A    between atoms: C_12  and  C_14 
REMARK   13  A    between atoms: C_13  and  C_15 
REMARK   14  A    between atoms: C_14  and  C_16 
REMARK   15  A    between atoms: C_16  and  C_18 
ROOT
HETATM    1  O   UNL     1      35.436  -5.995 -17.454  1.00  0.00    -0.776 OA
HETATM    2  H   UNL     1      35.301  -6.706 -18.097  1.00  0.00     0.167 HD
ENDROOT
BRANCH   1   3
HETATM    3  C   UNL     1      34.520  -5.725 -16.500  1.00  0.00     0.139 C 
HETATM    4  O   UNL     1      34.250  -4.564 -16.229  1.00  0.00    -0.650 OA
BRANCH   3   5
HETATM    5  C   UNL     1      33.848  -6.870 -15.788  1.00  0.00     0.110 C 
BRANCH   5   6
HETATM    6  C   UNL     1      33.372  -7.977 -16.742  1.00  0.00     0.010 C 
BRANCH   6   7
HETATM    7  C   UNL     1      32.110  -8.661 -16.205  1.00  0.00     0.001 C 
BRANCH   7   8
HETATM    8  C   UNL     1      32.079 -10.144 -16.595  1.00  0.00     0.000 C 
BRANCH   8   9
HETATM    9  C   UNL     1      30.711 -10.534 -17.167  1.00  0.00     0.000 C 
BRANCH   9  10
HETATM   10  C   UNL     1      30.004 -11.548 -16.260  1.00  0.00     0.000 C 
BRANCH  10  11
HETATM   11  C   UNL     1      30.327 -11.284 -14.784  1.00  0.00     0.000 C 
BRANCH  11  12
HETATM   12  C   UNL     1      29.236 -10.432 -14.125  1.00  0.00     0.000 C 
BRANCH  12  13
HETATM   13  C   UNL     1      28.355 -11.282 -13.203  1.00  0.00     0.000 C 
BRANCH  13  14
HETATM   14  C   UNL     1      29.187 -11.928 -12.088  1.00  0.00     0.000 C 
BRANCH  14  15
HETATM   15  C   UNL     1      28.976 -11.202 -10.754  1.00  0.00     0.000 C 
BRANCH  15  16
HETATM   16  C   UNL     1      30.317 -10.904 -10.072  1.00  0.00     0.000 C 
BRANCH  16  17
HETATM   17  C   UNL     1      31.439 -10.759 -11.106  1.00  0.00    -0.000 C 
BRANCH  17  18
HETATM   18  C   UNL     1      31.680  -9.285 -11.453  1.00  0.00    -0.005 C 
HETATM   19  C   UNL     1      32.702  -9.144 -12.578  1.00  0.00     0.005 C 
ENDBRANCH  17  18
ENDBRANCH  16  17
ENDBRANCH  15  16
ENDBRANCH  14  15
ENDBRANCH  13  14
ENDBRANCH  12  13
ENDBRANCH  11  12
ENDBRANCH  10  11
ENDBRANCH   9  10
ENDBRANCH   8   9
ENDBRANCH   7   8
ENDBRANCH   6   7
ENDBRANCH   5   6
ENDBRANCH   3   5
ENDBRANCH   1   3
TORSDOF 15
ENDMDL
MODEL 2
REMARK VINA RESULT:      -4.7      3.192      4.510
REMARK  15 active torsions:
REMARK  status: ('A' for Active; 'I' for Inactive)
REMARK    1  A    between atoms: O_1  and  C_18 
REMARK    2  A    between atoms: C_3  and  C_4 
REMARK    3  A    between atoms: C_3  and  C_5 
REMARK    4  A    between atoms: C_4  and  C_6 
REMARK    5  A    between atoms: C_5  and  C_7 
REMARK    6  A    between atoms: C_6  and  C_8 
REMARK    7  A    between atoms: C_7  and  C_9 
REMARK    8  A    between atoms: C_8  and  C_10 
REMARK    9  A    between atoms: C_9  and  C_11 
REMARK   10  A    between atoms: C_10  and  C_12 
REMARK   11  A    between atoms: C_11  and  C_13 
REMARK   12  A    between atoms: C_12  and  C_14 
REMARK   13  A    between atoms: C_13  and  C_15 
REMARK   14  A    between atoms: C_14  and  C_16 
REMARK   15  A    between atoms: C_16  and  C_18 
ROOT
HETATM    1  O   UNL     1      35.322  -6.201 -12.724  1.00  0.00    -0.776 OA
HETATM    2  H   UNL     1      35.545  -7.133 -12.861  1.00  0.00     0.167 HD
ENDROOT
BRANCH   1   3
HETATM    3  C   UNL     1      34.552  -5.806 -11.689  1.00  0.00     0.139 C 
HETATM    4  O   UNL     1      34.441  -4.615 -11.435  1.00  0.00    -0.650 OA
BRANCH   3   5
HETATM    5  C   UNL     1      33.841  -6.849 -10.866  1.00  0.00     0.110 C 
BRANCH   5   6
HETATM    6  C   UNL     1      33.514  -8.123 -11.661  1.00  0.00     0.010 C 
BRANCH   6   7
HETATM    7  C   UNL     1      32.227  -8.777 -11.145  1.00  0.00     0.001 C 
BRANCH   7   8
HETATM    8  C   UNL     1      32.543  -9.922 -10.175  1.00  0.00     0.000 C 
BRANCH   8   9
HETATM    9  C   UNL     1      33.507 -10.932 -10.810  1.00  0.00     0.000 C 
BRANCH   9  10
HETATM   10  C   UNL     1      32.777 -12.226 -11.187  1.00  0.00     0.000 C 
BRANCH  10  11
HETATM   11  C   UNL     1      32.724 -12.403 -12.710  1.00  0.00     0.000 C 
BRANCH  11  12
HETATM   12  C   UNL     1      31.563 -11.607 -13.317  1.00  0.00     0.000 C 
BRANCH  12  13
HETATM   13  C   UNL     1      30.254 -11.887 -12.571  1.00  0.00     0.000 C 
BRANCH  13  14
HETATM   14  C   UNL     1      29.395 -10.620 -12.473  1.00  0.00     0.000 C 
BRANCH  14  15
HETATM   15  C   UNL     1      29.085 -10.276 -11.012  1.00  0.00     0.000 C 
BRANCH  15  16
HETATM   16  C   UNL     1      28.692 -11.531 -10.223  1.00  0.00     0.000 C 
BRANCH  16  17
HETATM   17  C   UNL     1      28.590 -11.228  -8.723  1.00  0.00    -0.000 C 
BRANCH  17  18
HETATM   18  C   UNL     1      29.962 -10.872  -8.139  1.00  0.00    -0.005 C 
HETATM   19  C   UNL     1      30.632 -12.096  -7.520  1.00  0.00     0.005 C 
ENDBRANCH  17  18
ENDBRANCH  16  17
ENDBRANCH  15  16
ENDBRANCH  14  15
ENDBRANCH  13  14
ENDBRANCH  12  13
ENDBRANCH  11  12
ENDBRANCH  10  11
ENDBRANCH   9  10
ENDBRANCH   8   9
ENDBRANCH   7   8
ENDBRANCH   6   7
ENDBRANCH   5   6
ENDBRANCH   3   5
ENDBRANCH   1   3
TORSDOF 15
ENDMDL
MODEL 3
REMARK VINA RESULT:      -4.7      4.625      7.988
REMARK  15 active torsions:
REMARK  status: ('A' for Active; 'I' for Inactive)
REMARK    1  A    between atoms: O_1  and  C_18 
REMARK    2  A    between atoms: C_3  and  C_4 
REMARK    3  A    between atoms: C_3  and  C_5 
REMARK    4  A    between atoms: C_4  and  C_6 
REMARK    5  A    between atoms: C_5  and  C_7 
REMARK    6  A    between atoms: C_6  and  C_8 
REMARK    7  A    between atoms: C_7  and  C_9 
REMARK    8  A    between atoms: C_8  and  C_10 
REMARK    9  A    between atoms: C_9  and  C_11 
REMARK   10  A    between atoms: C_10  and  C_12 
REMARK   11  A    between atoms: C_11  and  C_13 
REMARK   12  A    between atoms: C_12  and  C_14 
REMARK   13  A    between atoms: C_13  and  C_15 
REMARK   14  A    between atoms: C_14  and  C_16 
REMARK   15  A    between atoms: C_16  and  C_18 
ROOT
HETATM    1  O   UNL     1      33.983  -8.205  -5.537  1.00  0.00    -0.776 OA
HETATM    2  H   UNL     1      33.656  -7.315  -5.726  1.00  0.00     0.167 HD
ENDROOT
BRANCH   1   3
HETATM    3  C   UNL     1      33.671  -9.252  -6.331  1.00  0.00     0.139 C 
HETATM    4  O   UNL     1      34.360 -10.263  -6.301  1.00  0.00    -0.650 OA
BRANCH   3   5
HETATM    5  C   UNL     1      32.474  -9.149  -7.240  1.00  0.00     0.110 C 
BRANCH   5   6
HETATM    6  C   UNL     1      31.137  -9.227  -6.487  1.00  0.00     0.010 C 
BRANCH   6   7
HETATM    7  C   UNL     1      31.007 -10.555  -5.733  1.00  0.00     0.001 C 
BRANCH   7   8
HETATM    8  C   UNL     1      29.581 -11.110  -5.837  1.00  0.00     0.000 C 
BRANCH   8   9
HETATM    9  C   UNL     1      29.402 -11.929  -7.121  1.00  0.00     0.000 C 
BRANCH   9  10
HETATM   10  C   UNL     1      28.186 -11.444  -7.918  1.00  0.00     0.000 C 
BRANCH  10  11
HETATM   11  C   UNL     1      28.613 -10.855  -9.268  1.00  0.00     0.000 C 
BRANCH  11  12
HETATM   12  C   UNL     1      30.113 -11.057  -9.508  1.00  0.00     0.000 C 
BRANCH  12  13
HETATM   13  C   UNL     1      30.593 -10.240 -10.713  1.00  0.00     0.000 C 
BRANCH  13  14
HETATM   14  C   UNL     1      31.386 -11.116 -11.691  1.00  0.00     0.000 C 
BRANCH  14  15
HETATM   15  C   UNL     1      30.445 -11.918 -12.598  1.00  0.00     0.000 C 
BRANCH  15  16
HETATM   16  C   UNL     1      29.261 -11.060 -13.059  1.00  0.00     0.000 C 
BRANCH  16  17
HETATM   17  C   UNL     1      29.146 -11.058 -14.588  1.00  0.00    -0.000 C 
BRANCH  17  18
HETATM   18  C   UNL     1      30.531 -11.015 -15.244  1.00  0.00    -0.005 C 
HETATM   19  C   UNL     1      30.603  -9.921 -16.306  1.00  0.00     0.005 C 
ENDBRANCH  17  18
ENDBRANCH  16  17
ENDBRANCH  15  16
ENDBRANCH  14  15
ENDBRANCH  13  14
ENDBRANCH  12  13
ENDBRANCH  11  12
ENDBRANCH  10  11
ENDBRANCH   9  10
ENDBRANCH   8   9
ENDBRANCH   7   8
ENDBRANCH   6   7
ENDBRANCH   5   6
ENDBRANCH   3   5
ENDBRANCH   1   3
TORSDOF 15
ENDMDL
MODEL 4
REMARK VINA RESULT:      -4.6      2.110      4.688
REMARK  15 active torsions:
REMARK  status: ('A' for Active; 'I' for Inactive)
REMARK    1  A    between atoms: O_1  and  C_18 
REMARK    2  A    between atoms: C_3  and  C_4 
REMARK    3  A    between atoms: C_3  and  C_5 
REMARK    4  A    between atoms: C_4  and  C_6 
REMARK    5  A    between atoms: C_5  and  C_7 
REMARK    6  A    between atoms: C_6  and  C_8 
REMARK    7  A    between atoms: C_7  and  C_9 
REMARK    8  A    between atoms: C_8  and  C_10 
REMARK    9  A    between atoms: C_9  and  C_11 
REMARK   10  A    between atoms: C_10  and  C_12 
REMARK   11  A    between atoms: C_11  and  C_13 
REMARK   12  A    between atoms: C_12  and  C_14 
REMARK   13  A    between atoms: C_13  and  C_15 
REMARK   14  A    between atoms: C_14  and  C_16 
REMARK   15  A    between atoms: C_16  and  C_18 
ROOT
HETATM    1  O   UNL     1      33.928  -4.533 -11.359  1.00  0.00    -0.776 OA
HETATM    2  H   UNL     1      34.071  -3.812 -11.988  1.00  0.00     0.167 HD
ENDROOT
BRANCH   1   3
HETATM    3  C   UNL     1      34.388  -5.779 -11.600  1.00  0.00     0.139 C 
HETATM    4  O   UNL     1      35.303  -5.946 -12.394  1.00  0.00    -0.650 OA
BRANCH   3   5
HETATM    5  C   UNL     1      33.759  -6.942 -10.878  1.00  0.00     0.110 C 
BRANCH   5   6
HETATM    6  C   UNL     1      33.298  -8.062 -11.824  1.00  0.00     0.010 C 
BRANCH   6   7
HETATM    7  C   UNL     1      32.304  -8.997 -11.127  1.00  0.00     0.001 C 
BRANCH   7   8
HETATM    8  C   UNL     1      32.843 -10.431 -11.071  1.00  0.00     0.000 C 
BRANCH   8   9
HETATM    9  C   UNL     1      31.719 -11.431 -10.775  1.00  0.00     0.000 C 
BRANCH   9  10
HETATM   10  C   UNL     1      30.627 -10.791  -9.911  1.00  0.00     0.000 C 
BRANCH  10  11
HETATM   11  C   UNL     1      29.232 -11.108 -10.463  1.00  0.00     0.000 C 
BRANCH  11  12
HETATM   12  C   UNL     1      28.994 -10.399 -11.801  1.00  0.00     0.000 C 
BRANCH  12  13
HETATM   13  C   UNL     1      28.295 -11.328 -12.800  1.00  0.00     0.000 C 
BRANCH  13  14
HETATM   14  C   UNL     1      28.878 -11.160 -14.209  1.00  0.00     0.000 C 
BRANCH  14  15
HETATM   15  C   UNL     1      30.389 -10.907 -14.152  1.00  0.00     0.000 C 
BRANCH  15  16
HETATM   16  C   UNL     1      31.056 -11.256 -15.488  1.00  0.00     0.000 C 
BRANCH  16  17
HETATM   17  C   UNL     1      32.560 -10.962 -15.445  1.00  0.00    -0.000 C 
BRANCH  17  18
HETATM   18  C   UNL     1      32.824  -9.494 -15.094  1.00  0.00    -0.005 C 
HETATM   19  C   UNL     1      32.440  -8.573 -16.249  1.00  0.00     0.005 C 
ENDBRANCH  17  18
ENDBRANCH  16  17
ENDBRANCH  15  16
ENDBRANCH  14  15
ENDBRANCH  13  14
ENDBRANCH  12  13
ENDBRANCH  11  12
ENDBRANCH  10  11
ENDBRANCH   9  10
ENDBRANCH   8   9
ENDBRANCH   7   8
ENDBRANCH   6   7
ENDBRANCH   5   6
ENDBRANCH   3   5
ENDBRANCH   1   3
TORSDOF 15
ENDMDL
MODEL 5
REMARK VINA RESULT:      -4.6      1.958      3.196
REMARK  15 active torsions:
REMARK  status: ('A' for Active; 'I' for Inactive)
REMARK    1  A    between atoms: O_1  and  C_18 
REMARK    2  A    between atoms: C_3  and  C_4 
REMARK    3  A    between atoms: C_3  and  C_5 
REMARK    4  A    between atoms: C_4  and  C_6 
REMARK    5  A    between atoms: C_5  and  C_7 
REMARK    6  A    between atoms: C_6  and  C_8 
REMARK    7  A    between atoms: C_7  and  C_9 
REMARK    8  A    between atoms: C_8  and  C_10 
REMARK    9  A    between atoms: C_9  and  C_11 
REMARK   10  A    between atoms: C_10  and  C_12 
REMARK   11  A    between atoms: C_11  and  C_13 
REMARK   12  A    between atoms: C_12  and  C_14 
REMARK   13  A    between atoms: C_13  and  C_15 
REMARK   14  A    between atoms: C_14  and  C_16 
REMARK   15  A    between atoms: C_16  and  C_18 
ROOT
HETATM    1  O   UNL     1      34.134  -8.312 -14.914  1.00  0.00    -0.776 OA
HETATM    2  H   UNL     1      33.893  -7.695 -14.209  1.00  0.00     0.167 HD
ENDROOT
BRANCH   1   3
HETATM    3  C   UNL     1      33.532  -8.274 -16.121  1.00  0.00     0.139 C 
HETATM    4  O   UNL     1      34.156  -7.890 -17.100  1.00  0.00    -0.650 OA
BRANCH   3   5
HETATM    5  C   UNL     1      32.094  -8.710 -16.234  1.00  0.00     0.110 C 
BRANCH   5   6
HETATM    6  C   UNL     1      31.878  -9.810 -17.285  1.00  0.00     0.010 C 
BRANCH   6   7
HETATM    7  C   UNL     1      31.629 -11.167 -16.617  1.00  0.00     0.001 C 
BRANCH   7   8
HETATM    8  C   UNL     1      30.232 -11.700 -16.957  1.00  0.00     0.000 C 
BRANCH   8   9
HETATM    9  C   UNL     1      29.160 -11.024 -16.094  1.00  0.00     0.000 C 
BRANCH   9  10
HETATM   10  C   UNL     1      29.577 -10.996 -14.619  1.00  0.00     0.000 C 
BRANCH  10  11
HETATM   11  C   UNL     1      28.372 -11.235 -13.702  1.00  0.00     0.000 C 
BRANCH  11  12
HETATM   12  C   UNL     1      28.823 -11.650 -12.296  1.00  0.00     0.000 C 
BRANCH  12  13
HETATM   13  C   UNL     1      29.133 -10.422 -11.433  1.00  0.00     0.000 C 
BRANCH  13  14
HETATM   14  C   UNL     1      29.616 -10.838 -10.038  1.00  0.00     0.000 C 
BRANCH  14  15
HETATM   15  C   UNL     1      31.141 -11.000 -10.009  1.00  0.00     0.000 C 
BRANCH  15  16
HETATM   16  C   UNL     1      31.679 -10.890  -8.578  1.00  0.00     0.000 C 
BRANCH  16  17
HETATM   17  C   UNL     1      31.046 -11.951  -7.669  1.00  0.00    -0.000 C 
BRANCH  17  18
HETATM   18  C   UNL     1      30.786 -11.389  -6.267  1.00  0.00    -0.005 C 
HETATM   19  C   UNL     1      31.002  -9.879  -6.229  1.00  0.00     0.005 C 
ENDBRANCH  17  18
ENDBRANCH  16  17
ENDBRANCH  15  16
ENDBRANCH  14  15
ENDBRANCH  13  14
ENDBRANCH  12  13
ENDBRANCH  11  12
ENDBRANCH  10  11
ENDBRANCH   9  10
ENDBRANCH   8   9
ENDBRANCH   7   8
ENDBRANCH   6   7
ENDBRANCH   5   6
ENDBRANCH   3   5
ENDBRANCH   1   3
TORSDOF 15
ENDMDL
MODEL 6
REMARK VINA RESULT:      -4.6      2.736      4.920
REMARK  15 active torsions:
REMARK  status: ('A' for Active; 'I' for Inactive)
REMARK    1  A    between atoms: O_1  and  C_18 
REMARK    2  A    between atoms: C_3  and  C_4 
REMARK    3  A    between atoms: C_3  and  C_5 
REMARK    4  A    between atoms: C_4  and  C_6 
REMARK    5  A    between atoms: C_5  and  C_7 
REMARK    6  A    between atoms: C_6  and  C_8 
REMARK    7  A    between atoms: C_7  and  C_9 
REMARK    8  A    between atoms: C_8  and  C_10 
REMARK    9  A    between atoms: C_9  and  C_11 
REMARK   10  A    between atoms: C_10  and  C_12 
REMARK   11  A    between atoms: C_11  and  C_13 
REMARK   12  A    between atoms: C_12  and  C_14 
REMARK   13  A    between atoms: C_13  and  C_15 
REMARK   14  A    between atoms: C_14  and  C_16 
REMARK   15  A    between atoms: C_16  and  C_18 
ROOT
HETATM    1  O   UNL     1      35.552  -5.961 -12.352  1.00  0.00    -0.776 OA
HETATM    2  H   UNL     1      35.905  -6.857 -12.442  1.00  0.00     0.167 HD
ENDROOT
BRANCH   1   3
HETATM    3  C   UNL     1      34.480  -5.700 -11.574  1.00  0.00     0.139 C 
HETATM    4  O   UNL     1      34.169  -4.542 -11.336  1.00  0.00    -0.650 OA
BRANCH   3   5
HETATM    5  C   UNL     1      33.687  -6.853 -11.014  1.00  0.00     0.110 C 
BRANCH   5   6
HETATM    6  C   UNL     1      33.647  -8.069 -11.952  1.00  0.00     0.010 C 
BRANCH   6   7
HETATM    7  C   UNL     1      32.508  -9.021 -11.569  1.00  0.00     0.001 C 
BRANCH   7   8
HETATM    8  C   UNL     1      32.375 -10.158 -12.589  1.00  0.00     0.000 C 
BRANCH   8   9
HETATM    9  C   UNL     1      31.643 -11.361 -11.981  1.00  0.00     0.000 C 
BRANCH   9  10
HETATM   10  C   UNL     1      30.603 -11.923 -12.956  1.00  0.00     0.000 C 
BRANCH  10  11
HETATM   11  C   UNL     1      30.353 -10.949 -14.114  1.00  0.00     0.000 C 
BRANCH  11  12
HETATM   12  C   UNL     1      28.935 -11.111 -14.674  1.00  0.00     0.000 C 
BRANCH  12  13
HETATM   13  C   UNL     1      28.956 -11.235 -16.202  1.00  0.00     0.000 C 
BRANCH  13  14
HETATM   14  C   UNL     1      30.338 -10.877 -16.763  1.00  0.00     0.000 C 
BRANCH  14  15
HETATM   15  C   UNL     1      30.790 -11.903 -17.809  1.00  0.00     0.000 C 
BRANCH  15  16
HETATM   16  C   UNL     1      32.096 -12.584 -17.384  1.00  0.00     0.000 C 
BRANCH  16  17
HETATM   17  C   UNL     1      33.218 -11.555 -17.202  1.00  0.00    -0.000 C 
BRANCH  17  18
HETATM   18  C   UNL     1      33.726 -11.546 -15.755  1.00  0.00    -0.005 C 
HETATM   19  C   UNL     1      33.506 -12.900 -15.086  1.00  0.00     0.005 C 
ENDBRANCH  17  18
ENDBRANCH  16  17
ENDBRANCH  15  16
ENDBRANCH  14  15
ENDBRANCH  13  14
ENDBRANCH  12  13
ENDBRANCH  11  12
ENDBRANCH  10  11
ENDBRANCH   9  10
ENDBRANCH   8   9
ENDBRANCH   7   8
ENDBRANCH   6   7
ENDBRANCH   5   6
ENDBRANCH   3   5
ENDBRANCH   1   3
TORSDOF 15
ENDMDL
MODEL 7
REMARK VINA RESULT:      -4.6      6.433      8.346
REMARK  15 active torsions:
REMARK  status: ('A' for Active; 'I' for Inactive)
REMARK    1  A    between atoms: O_1  and  C_18 
REMARK    2  A    between atoms: C_3  and  C_4 
REMARK    3  A    between atoms: C_3  and  C_5 
REMARK    4  A    between atoms: C_4  and  C_6 
REMARK    5  A    between atoms: C_5  and  C_7 
REMARK    6  A    between atoms: C_6  and  C_8 
REMARK    7  A    between atoms: C_7  and  C_9 
REMARK    8  A    between atoms: C_8  and  C_10 
REMARK    9  A    between atoms: C_9  and  C_11 
REMARK   10  A    between atoms: C_10  and  C_12 
REMARK   11  A    between atoms: C_11  and  C_13 
REMARK   12  A    between atoms: C_12  and  C_14 
REMARK   13  A    between atoms: C_13  and  C_15 
REMARK   14  A    between atoms: C_14  and  C_16 
REMARK   15  A    between atoms: C_16  and  C_18 
ROOT
HETATM    1  O   UNL     1      33.855 -16.146  -7.560  1.00  0.00    -0.776 OA
HETATM    2  H   UNL     1      33.014 -16.089  -8.034  1.00  0.00     0.167 HD
ENDROOT
BRANCH   1   3
HETATM    3  C   UNL     1      34.524 -15.038  -7.175  1.00  0.00     0.139 C 
HETATM    4  O   UNL     1      35.733 -14.970  -7.342  1.00  0.00    -0.650 OA
BRANCH   3   5
HETATM    5  C   UNL     1      33.757 -13.904  -6.547  1.00  0.00     0.110 C 
BRANCH   5   6
HETATM    6  C   UNL     1      33.729 -12.638  -7.418  1.00  0.00     0.010 C 
BRANCH   6   7
HETATM    7  C   UNL     1      32.514 -12.641  -8.352  1.00  0.00     0.001 C 
BRANCH   7   8
HETATM    8  C   UNL     1      32.794 -11.830  -9.623  1.00  0.00     0.000 C 
BRANCH   8   9
HETATM    9  C   UNL     1      31.666 -10.829  -9.898  1.00  0.00     0.000 C 
BRANCH   9  10
HETATM   10  C   UNL     1      30.737 -11.337 -11.006  1.00  0.00     0.000 C 
BRANCH  10  11
HETATM   11  C   UNL     1      29.265 -11.148 -10.620  1.00  0.00     0.000 C 
BRANCH  11  12
HETATM   12  C   UNL     1      29.137 -10.525  -9.225  1.00  0.00     0.000 C 
BRANCH  12  13
HETATM   13  C   UNL     1      28.288 -11.407  -8.303  1.00  0.00     0.000 C 
BRANCH  13  14
HETATM   14  C   UNL     1      29.141 -12.011  -7.181  1.00  0.00     0.000 C 
BRANCH  14  15
HETATM   15  C   UNL     1      28.705 -11.479  -5.810  1.00  0.00     0.000 C 
BRANCH  15  16
HETATM   16  C   UNL     1      29.634 -10.355  -5.336  1.00  0.00     0.000 C 
BRANCH  16  17
HETATM   17  C   UNL     1      31.058 -10.556  -5.868  1.00  0.00    -0.000 C 
BRANCH  17  18
HETATM   18  C   UNL     1      31.573  -9.287  -6.557  1.00  0.00    -0.005 C 
HETATM   19  C   UNL     1      32.992  -8.953  -6.106  1.00  0.00     0.005 C 
ENDBRANCH  17  18
ENDBRANCH  16  17
ENDBRANCH  15  16
ENDBRANCH  14  15
ENDBRANCH  13  14
ENDBRANCH  12  13
ENDBRANCH  11  12
ENDBRANCH  10  11
ENDBRANCH   9  10
ENDBRANCH   8   9
ENDBRANCH   7   8
ENDBRANCH   6   7
ENDBRANCH   5   6
ENDBRANCH   3   5
ENDBRANCH   1   3
TORSDOF 15
ENDMDL
MODEL 8
REMARK VINA RESULT:      -4.5      4.253      7.350
REMARK  15 active torsions:
REMARK  status: ('A' for Active; 'I' for Inactive)
REMARK    1  A    between atoms: O_1  and  C_18 
REMARK    2  A    between atoms: C_3  and  C_4 
REMARK    3  A    between atoms: C_3  and  C_5 
REMARK    4  A    between atoms: C_4  and  C_6 
REMARK    5  A    between atoms: C_5  and  C_7 
REMARK    6  A    between atoms: C_6  and  C_8 
REMARK    7  A    between atoms: C_7  and  C_9 
REMARK    8  A    between atoms: C_8  and  C_10 
REMARK    9  A    between atoms: C_9  and  C_11 
REMARK   10  A    between atoms: C_10  and  C_12 
REMARK   11  A    between atoms: C_11  and  C_13 
REMARK   12  A    between atoms: C_12  and  C_14 
REMARK   13  A    between atoms: C_13  and  C_15 
REMARK   14  A    between atoms: C_14  and  C_16 
REMARK   15  A    between atoms: C_16  and  C_18 
ROOT
HETATM    1  O   UNL     1      34.566  -7.576  -8.013  1.00  0.00    -0.776 OA
HETATM    2  H   UNL     1      34.066  -7.591  -8.842  1.00  0.00     0.167 HD
ENDROOT
BRANCH   1   3
HETATM    3  C   UNL     1      34.001  -7.165  -6.858  1.00  0.00     0.139 C 
HETATM    4  O   UNL     1      34.221  -6.036  -6.443  1.00  0.00    -0.650 OA
BRANCH   3   5
HETATM    5  C   UNL     1      33.107  -8.115  -6.104  1.00  0.00     0.110 C 
BRANCH   5   6
HETATM    6  C   UNL     1      32.436  -9.159  -7.010  1.00  0.00     0.010 C 
BRANCH   6   7
HETATM    7  C   UNL     1      31.035  -9.510  -6.498  1.00  0.00     0.001 C 
BRANCH   7   8
HETATM    8  C   UNL     1      30.917 -11.011  -6.204  1.00  0.00     0.000 C 
BRANCH   8   9
HETATM    9  C   UNL     1      29.493 -11.515  -6.470  1.00  0.00     0.000 C 
BRANCH   9  10
HETATM   10  C   UNL     1      28.744 -10.570  -7.417  1.00  0.00     0.000 C 
BRANCH  10  11
HETATM   11  C   UNL     1      28.563 -11.208  -8.800  1.00  0.00     0.000 C 
BRANCH  11  12
HETATM   12  C   UNL     1      29.760 -10.904  -9.708  1.00  0.00     0.000 C 
BRANCH  12  13
HETATM   13  C   UNL     1      29.312 -10.704 -11.160  1.00  0.00     0.000 C 
BRANCH  13  14
HETATM   14  C   UNL     1      29.646 -11.933 -12.014  1.00  0.00     0.000 C 
BRANCH  14  15
HETATM   15  C   UNL     1      30.764 -11.620 -13.016  1.00  0.00     0.000 C 
BRANCH  15  16
HETATM   16  C   UNL     1      31.266 -10.181 -12.849  1.00  0.00     0.000 C 
BRANCH  16  17
HETATM   17  C   UNL     1      32.652 -10.155 -12.193  1.00  0.00    -0.000 C 
BRANCH  17  18
HETATM   18  C   UNL     1      32.666  -9.224 -10.975  1.00  0.00    -0.005 C 
HETATM   19  C   UNL     1      33.428  -7.936 -11.275  1.00  0.00     0.005 C 
ENDBRANCH  17  18
ENDBRANCH  16  17
ENDBRANCH  15  16
ENDBRANCH  14  15
ENDBRANCH  13  14
ENDBRANCH  12  13
ENDBRANCH  11  12
ENDBRANCH  10  11
ENDBRANCH   9  10
ENDBRANCH   8   9
ENDBRANCH   7   8
ENDBRANCH   6   7
ENDBRANCH   5   6
ENDBRANCH   3   5
ENDBRANCH   1   3
TORSDOF 15
ENDMDL
MODEL 9
REMARK VINA RESULT:      -4.5      4.501      7.309
REMARK  15 active torsions:
REMARK  status: ('A' for Active; 'I' for Inactive)
REMARK    1  A    between atoms: O_1  and  C_18 
REMARK    2  A    between atoms: C_3  and  C_4 
REMARK    3  A    between atoms: C_3  and  C_5 
REMARK    4  A    between atoms: C_4  and  C_6 
REMARK    5  A    between atoms: C_5  and  C_7 
REMARK    6  A    between atoms: C_6  and  C_8 
REMARK    7  A    between atoms: C_7  and  C_9 
REMARK    8  A    between atoms: C_8  and  C_10 
REMARK    9  A    between atoms: C_9  and  C_11 
REMARK   10  A    between atoms: C_10  and  C_12 
REMARK   11  A    between atoms: C_11  and  C_13 
REMARK   12  A    between atoms: C_12  and  C_14 
REMARK   13  A    between atoms: C_13  and  C_15 
REMARK   14  A    between atoms: C_14  and  C_16 
REMARK   15  A    between atoms: C_16  and  C_18 
ROOT
HETATM    1  O   UNL     1      35.711  -5.960  -7.147  1.00  0.00    -0.776 OA
HETATM    2  H   UNL     1      35.857  -6.262  -8.055  1.00  0.00     0.167 HD
ENDROOT
BRANCH   1   3
HETATM    3  C   UNL     1      34.465  -5.801  -6.651  1.00  0.00     0.139 C 
HETATM    4  O   UNL     1      33.952  -4.691  -6.643  1.00  0.00    -0.650 OA
BRANCH   3   5
HETATM    5  C   UNL     1      33.734  -7.004  -6.115  1.00  0.00     0.110 C 
BRANCH   5   6
HETATM    6  C   UNL     1      33.572  -8.124  -7.155  1.00  0.00     0.010 C 
BRANCH   6   7
HETATM    7  C   UNL     1      32.413  -9.056  -6.784  1.00  0.00     0.001 C 
BRANCH   7   8
HETATM    8  C   UNL     1      32.762 -10.517  -7.091  1.00  0.00     0.000 C 
BRANCH   8   9
HETATM    9  C   UNL     1      31.537 -11.424  -6.921  1.00  0.00     0.000 C 
BRANCH   9  10
HETATM   10  C   UNL     1      30.255 -10.701  -7.351  1.00  0.00     0.000 C 
BRANCH  10  11
HETATM   11  C   UNL     1      29.710 -11.282  -8.661  1.00  0.00     0.000 C 
BRANCH  11  12
HETATM   12  C   UNL     1      30.407 -10.655  -9.874  1.00  0.00     0.000 C 
BRANCH  12  13
HETATM   13  C   UNL     1      29.390 -10.263 -10.952  1.00  0.00     0.000 C 
BRANCH  13  14
HETATM   14  C   UNL     1      28.811 -11.505 -11.640  1.00  0.00     0.000 C 
BRANCH  14  15
HETATM   15  C   UNL     1      28.723 -11.304 -13.158  1.00  0.00     0.000 C 
BRANCH  15  16
HETATM   16  C   UNL     1      30.011 -10.677 -13.704  1.00  0.00     0.000 C 
BRANCH  16  17
HETATM   17  C   UNL     1      31.086 -11.746 -13.939  1.00  0.00    -0.000 C 
BRANCH  17  18
HETATM   18  C   UNL     1      32.300 -11.513 -13.033  1.00  0.00    -0.005 C 
HETATM   19  C   UNL     1      32.570 -12.728 -12.150  1.00  0.00     0.005 C 
ENDBRANCH  17  18
ENDBRANCH  16  17
ENDBRANCH  15  16
ENDBRANCH  14  15
ENDBRANCH  13  14
ENDBRANCH  12  13
ENDBRANCH  11  12
ENDBRANCH  10  11
ENDBRANCH   9  10
ENDBRANCH   8   9
ENDBRANCH   7   8
ENDBRANCH   6   7
ENDBRANCH   5   6
ENDBRANCH   3   5
ENDBRANCH   1   3
TORSDOF 15
ENDMDL
MODEL 10
REMARK VINA RESULT:      -4.5      1.692      4.219
REMARK  15 active torsions:
REMARK  status: ('A' for Active; 'I' for Inactive)
REMARK    1  A    between atoms: O_1  and  C_18 
REMARK    2  A    between atoms: C_3  and  C_4 
REMARK    3  A    between atoms: C_3  and  C_5 
REMARK    4  A    between atoms: C_4  and  C_6 
REMARK    5  A    between atoms: C_5  and  C_7 
REMARK    6  A    between atoms: C_6  and  C_8 
REMARK    7  A    between atoms: C_7  and  C_9 
REMARK    8  A    between atoms: C_8  and  C_10 
REMARK    9  A    between atoms: C_9  and  C_11 
REMARK   10  A    between atoms: C_10  and  C_12 
REMARK   11  A    between atoms: C_11  and  C_13 
REMARK   12  A    between atoms: C_12  and  C_14 
REMARK   13  A    between atoms: C_13  and  C_15 
REMARK   14  A    between atoms: C_14  and  C_16 
REMARK   15  A    between atoms: C_16  and  C_18 
ROOT
HETATM    1  O   UNL     1      34.698  -7.859 -17.948  1.00  0.00    -0.776 OA
HETATM    2  H   UNL     1      34.795  -7.253 -18.695  1.00  0.00     0.167 HD
ENDROOT
BRANCH   1   3
HETATM    3  C   UNL     1      33.644  -8.698 -17.853  1.00  0.00     0.139 C 
HETATM    4  O   UNL     1      33.170  -9.194 -18.866  1.00  0.00    -0.650 OA
BRANCH   3   5
HETATM    5  C   UNL     1      33.075  -9.006 -16.493  1.00  0.00     0.110 C 
BRANCH   5   6
HETATM    6  C   UNL     1      33.666 -10.278 -15.866  1.00  0.00     0.010 C 
BRANCH   6   7
HETATM    7  C   UNL     1      34.342  -9.967 -14.526  1.00  0.00     0.001 C 
BRANCH   7   8
HETATM    8  C   UNL     1      33.496  -8.995 -13.695  1.00  0.00     0.000 C 
BRANCH   8   9
HETATM    9  C   UNL     1      33.272  -9.533 -12.276  1.00  0.00     0.000 C 
BRANCH   9  10
HETATM   10  C   UNL     1      31.976  -8.978 -11.676  1.00  0.00     0.000 C 
BRANCH  10  11
HETATM   11  C   UNL     1      31.209 -10.069 -10.918  1.00  0.00     0.000 C 
BRANCH  11  12
HETATM   12  C   UNL     1      31.626 -11.466 -11.393  1.00  0.00     0.000 C 
BRANCH  12  13
HETATM   13  C   UNL     1      30.599 -12.044 -12.373  1.00  0.00     0.000 C 
BRANCH  13  14
HETATM   14  C   UNL     1      29.266 -11.290 -12.281  1.00  0.00     0.000 C 
BRANCH  14  15
HETATM   15  C   UNL     1      28.771 -10.876 -13.672  1.00  0.00     0.000 C 
BRANCH  15  16
HETATM   16  C   UNL     1      29.856 -11.099 -14.731  1.00  0.00     0.000 C 
BRANCH  16  17
HETATM   17  C   UNL     1      29.636 -10.189 -15.945  1.00  0.00    -0.000 C 
BRANCH  17  18
HETATM   18  C   UNL     1      29.118 -10.988 -17.145  1.00  0.00    -0.005 C 
HETATM   19  C   UNL     1      30.250 -11.333 -18.108  1.00  0.00     0.005 C 
ENDBRANCH  17  18
ENDBRANCH  16  17
ENDBRANCH  15  16
ENDBRANCH  14  15
ENDBRANCH  13  14
ENDBRANCH  12  13
ENDBRANCH  11  12
ENDBRANCH  10  11
ENDBRANCH   9  10
ENDBRANCH   8   9
ENDBRANCH   7   8
ENDBRANCH   6   7
ENDBRANCH   5   6
ENDBRANCH   3   5
ENDBRANCH   1   3
TORSDOF 15
ENDMDL
MODEL 11
REMARK VINA RESULT:      -4.5      2.512      5.780
REMARK  15 active torsions:
REMARK  status: ('A' for Active; 'I' for Inactive)
REMARK    1  A    between atoms: O_1  and  C_18 
REMARK    2  A    between atoms: C_3  and  C_4 
REMARK    3  A    between atoms: C_3  and  C_5 
REMARK    4  A    between atoms: C_4  and  C_6 
REMARK    5  A    between atoms: C_5  and  C_7 
REMARK    6  A    between atoms: C_6  and  C_8 
REMARK    7  A    between atoms: C_7  and  C_9 
REMARK    8  A    between atoms: C_8  and  C_10 
REMARK    9  A    between atoms: C_9  and  C_11 
REMARK   10  A    between atoms: C_10  and  C_12 
REMARK   11  A    between atoms: C_11  and  C_13 
REMARK   12  A    between atoms: C_12  and  C_14 
REMARK   13  A    between atoms: C_13  and  C_15 
REMARK   14  A    between atoms: C_14  and  C_16 
REMARK   15  A    between atoms: C_16  and  C_18 
ROOT
HETATM    1  O   UNL     1      35.579  -6.028 -17.247  1.00  0.00    -0.776 OA
HETATM    2  H   UNL     1      36.185  -6.757 -17.050  1.00  0.00     0.167 HD
ENDROOT
BRANCH   1   3
HETATM    3  C   UNL     1      34.462  -5.825 -16.516  1.00  0.00     0.139 C 
HETATM    4  O   UNL     1      34.080  -4.684 -16.296  1.00  0.00    -0.650 OA
BRANCH   3   5
HETATM    5  C   UNL     1      33.707  -7.017 -15.988  1.00  0.00     0.110 C 
BRANCH   5   6
HETATM    6  C   UNL     1      33.692  -8.203 -16.965  1.00  0.00     0.010 C 
BRANCH   6   7
HETATM    7  C   UNL     1      33.360  -9.510 -16.237  1.00  0.00     0.001 C 
BRANCH   7   8
HETATM    8  C   UNL     1      32.343  -9.272 -15.114  1.00  0.00     0.000 C 
BRANCH   8   9
HETATM    9  C   UNL     1      31.569 -10.556 -14.791  1.00  0.00     0.000 C 
BRANCH   9  10
HETATM   10  C   UNL     1      30.203 -10.565 -15.487  1.00  0.00     0.000 C 
BRANCH  10  11
HETATM   11  C   UNL     1      30.219 -11.479 -16.717  1.00  0.00     0.000 C 
BRANCH  11  12
HETATM   12  C   UNL     1      28.812 -11.631 -17.309  1.00  0.00     0.000 C 
BRANCH  12  13
HETATM   13  C   UNL     1      28.720 -10.964 -18.686  1.00  0.00     0.000 C 
BRANCH  13  14
HETATM   14  C   UNL     1      29.992 -11.217 -19.506  1.00  0.00     0.000 C 
BRANCH  14  15
HETATM   15  C   UNL     1      30.100 -10.228 -20.673  1.00  0.00     0.000 C 
BRANCH  15  16
HETATM   16  C   UNL     1      31.424 -10.408 -21.425  1.00  0.00     0.000 C 
BRANCH  16  17
HETATM   17  C   UNL     1      32.176  -9.076 -21.542  1.00  0.00    -0.000 C 
BRANCH  17  18
HETATM   18  C   UNL     1      33.188  -8.914 -20.402  1.00  0.00    -0.005 C 
HETATM   19  C   UNL     1      33.940 -10.217 -20.144  1.00  0.00     0.005 C 
ENDBRANCH  17  18
ENDBRANCH  16  17
ENDBRANCH  15  16
ENDBRANCH  14  15
ENDBRANCH  13  14
ENDBRANCH  12  13
ENDBRANCH  11  12
ENDBRANCH  10  11
ENDBRANCH   9  10
ENDBRANCH   8   9
ENDBRANCH   7   8
ENDBRANCH   6   7
ENDBRANCH   5   6
ENDBRANCH   3   5
ENDBRANCH   1   3
TORSDOF 15
ENDMDL
MODEL 12
REMARK VINA RESULT:      -4.5      5.186      8.547
REMARK  15 active torsions:
REMARK  status: ('A' for Active; 'I' for Inactive)
REMARK    1  A    between atoms: O_1  and  C_18 
REMARK    2  A    between atoms: C_3  and  C_4 
REMARK    3  A    between atoms: C_3  and  C_5 
REMARK    4  A    between atoms: C_4  and  C_6 
REMARK    5  A    between atoms: C_5  and  C_7 
REMARK    6  A    between atoms: C_6  and  C_8 
REMARK    7  A    between atoms: C_7  and  C_9 
REMARK    8  A    between atoms: C_8  and  C_10 
REMARK    9  A    between atoms: C_9  and  C_11 
REMARK   10  A    between atoms: C_10  and  C_12 
REMARK   11  A    between atoms: C_11  and  C_13 
REMARK   12  A    between atoms: C_12  and  C_14 
REMARK   13  A    between atoms: C_13  and  C_15 
REMARK   14  A    between atoms: C_14  and  C_16 
REMARK   15  A    between atoms: C_16  and  C_18 
ROOT
HETATM    1  O   UNL     1      28.422 -11.364  -4.731  1.00  0.00    -0.776 OA
HETATM    2  H   UNL     1      28.152 -11.039  -3.861  1.00  0.00     0.167 HD
ENDROOT
BRANCH   1   3
HETATM    3  C   UNL     1      29.590 -10.987  -5.293  1.00  0.00     0.139 C 
HETATM    4  O   UNL     1      30.647 -11.380  -4.818  1.00  0.00    -0.650 OA
BRANCH   3   5
HETATM    5  C   UNL     1      29.563 -10.085  -6.499  1.00  0.00     0.110 C 
BRANCH   5   6
HETATM    6  C   UNL     1      28.371 -10.358  -7.430  1.00  0.00     0.010 C 
BRANCH   6   7
HETATM    7  C   UNL     1      28.675 -11.516  -8.387  1.00  0.00     0.001 C 
BRANCH   7   8
HETATM    8  C   UNL     1      29.943 -11.236  -9.204  1.00  0.00     0.000 C 
BRANCH   8   9
HETATM    9  C   UNL     1      29.602 -10.543 -10.528  1.00  0.00     0.000 C 
BRANCH   9  10
HETATM   10  C   UNL     1      29.674 -11.530 -11.700  1.00  0.00     0.000 C 
BRANCH  10  11
HETATM   11  C   UNL     1      28.737 -11.103 -12.836  1.00  0.00     0.000 C 
BRANCH  11  12
HETATM   12  C   UNL     1      29.488 -11.029 -14.171  1.00  0.00     0.000 C 
BRANCH  12  13
HETATM   13  C   UNL     1      31.002 -11.128 -13.957  1.00  0.00     0.000 C 
BRANCH  13  14
HETATM   14  C   UNL     1      31.743 -10.052 -14.761  1.00  0.00     0.000 C 
BRANCH  14  15
HETATM   15  C   UNL     1      31.290 -10.049 -16.225  1.00  0.00     0.000 C 
BRANCH  15  16
HETATM   16  C   UNL     1      31.661 -11.364 -16.919  1.00  0.00     0.000 C 
BRANCH  16  17
HETATM   17  C   UNL     1      30.614 -11.745 -17.972  1.00  0.00    -0.000 C 
BRANCH  17  18
HETATM   18  C   UNL     1      29.439 -10.760 -17.962  1.00  0.00    -0.005 C 
HETATM   19  C   UNL     1      28.125 -11.474 -17.656  1.00  0.00     0.005 C 
ENDBRANCH  17  18
ENDBRANCH  16  17
ENDBRANCH  15  16
ENDBRANCH  14  15
ENDBRANCH  13  14
ENDBRANCH  12  13
ENDBRANCH  11  12
ENDBRANCH  10  11
ENDBRANCH   9  10
ENDBRANCH   8   9
ENDBRANCH   7   8
ENDBRANCH   6   7
ENDBRANCH   5   6
ENDBRANCH   3   5
ENDBRANCH   1   3
TORSDOF 15
ENDMDL
MODEL 13
REMARK VINA RESULT:      -4.5      4.071      7.338
REMARK  15 active torsions:
REMARK  status: ('A' for Active; 'I' for Inactive)
REMARK    1  A    between atoms: O_1  and  C_18 
REMARK    2  A    between atoms: C_3  and  C_4 
REMARK    3  A    between atoms: C_3  and  C_5 
REMARK    4  A    between atoms: C_4  and  C_6 
REMARK    5  A    between atoms: C_5  and  C_7 
REMARK    6  A    between atoms: C_6  and  C_8 
REMARK    7  A    between atoms: C_7  and  C_9 
REMARK    8  A    between atoms: C_8  and  C_10 
REMARK    9  A    between atoms: C_9  and  C_11 
REMARK   10  A    between atoms: C_10  and  C_12 
REMARK   11  A    between atoms: C_11  and  C_13 
REMARK   12  A    between atoms: C_12  and  C_14 
REMARK   13  A    between atoms: C_13  and  C_15 
REMARK   14  A    between atoms: C_14  and  C_16 
REMARK   15  A    between atoms: C_16  and  C_18 
ROOT
HETATM    1  O   UNL     1      34.416  -8.281  -8.246  1.00  0.00    -0.776 OA
HETATM    2  H   UNL     1      35.285  -8.705  -8.232  1.00  0.00     0.167 HD
ENDROOT
BRANCH   1   3
HETATM    3  C   UNL     1      33.921  -7.654  -7.157  1.00  0.00     0.139 C 
HETATM    4  O   UNL     1      34.419  -6.602  -6.784  1.00  0.00    -0.650 OA
BRANCH   3   5
HETATM    5  C   UNL     1      32.757  -8.271  -6.425  1.00  0.00     0.110 C 
BRANCH   5   6
HETATM    6  C   UNL     1      32.558  -9.759  -6.754  1.00  0.00     0.010 C 
BRANCH   6   7
HETATM    7  C   UNL     1      31.227 -10.272  -6.193  1.00  0.00     0.001 C 
BRANCH   7   8
HETATM    8  C   UNL     1      30.205 -10.491  -7.316  1.00  0.00     0.000 C 
BRANCH   8   9
HETATM    9  C   UNL     1      30.579 -11.707  -8.172  1.00  0.00     0.000 C 
BRANCH   9  10
HETATM   10  C   UNL     1      30.640 -11.336  -9.658  1.00  0.00     0.000 C 
BRANCH  10  11
HETATM   11  C   UNL     1      29.553 -10.315 -10.015  1.00  0.00     0.000 C 
BRANCH  11  12
HETATM   12  C   UNL     1      29.481 -10.094 -11.530  1.00  0.00     0.000 C 
BRANCH  12  13
HETATM   13  C   UNL     1      28.330 -10.895 -12.150  1.00  0.00     0.000 C 
BRANCH  13  14
HETATM   14  C   UNL     1      28.716 -11.430 -13.535  1.00  0.00     0.000 C 
BRANCH  14  15
HETATM   15  C   UNL     1      30.229 -11.329 -13.763  1.00  0.00     0.000 C 
BRANCH  15  16
HETATM   16  C   UNL     1      30.538 -10.688 -15.120  1.00  0.00     0.000 C 
BRANCH  16  17
HETATM   17  C   UNL     1      29.297 -10.679 -16.021  1.00  0.00    -0.000 C 
BRANCH  17  18
HETATM   18  C   UNL     1      29.380 -11.782 -17.082  1.00  0.00    -0.005 C 
HETATM   19  C   UNL     1      30.823 -12.020 -17.518  1.00  0.00     0.005 C 
ENDBRANCH  17  18
ENDBRANCH  16  17
ENDBRANCH  15  16
ENDBRANCH  14  15
ENDBRANCH  13  14
ENDBRANCH  12  13
ENDBRANCH  11  12
ENDBRANCH  10  11
ENDBRANCH   9  10
ENDBRANCH   8   9
ENDBRANCH   7   8
ENDBRANCH   6   7
ENDBRANCH   5   6
ENDBRANCH   3   5
ENDBRANCH   1   3
TORSDOF 15
ENDMDL
MODEL 14
REMARK VINA RESULT:      -4.5      3.671      6.200
REMARK  15 active torsions:
REMARK  status: ('A' for Active; 'I' for Inactive)
REMARK    1  A    between atoms: O_1  and  C_18 
REMARK    2  A    between atoms: C_3  and  C_4 
REMARK    3  A    between atoms: C_3  and  C_5 
REMARK    4  A    between atoms: C_4  and  C_6 
REMARK    5  A    between atoms: C_5  and  C_7 
REMARK    6  A    between atoms: C_6  and  C_8 
REMARK    7  A    between atoms: C_7  and  C_9 
REMARK    8  A    between atoms: C_8  and  C_10 
REMARK    9  A    between atoms: C_9  and  C_11 
REMARK   10  A    between atoms: C_10  and  C_12 
REMARK   11  A    between atoms: C_11  and  C_13 
REMARK   12  A    between atoms: C_12  and  C_14 
REMARK   13  A    between atoms: C_13  and  C_15 
REMARK   14  A    between atoms: C_14  and  C_16 
REMARK   15  A    between atoms: C_16  and  C_18 
ROOT
HETATM    1  O   UNL     1      35.848  -5.994 -12.219  1.00  0.00    -0.776 OA
HETATM    2  H   UNL     1      36.373  -6.805 -12.185  1.00  0.00     0.167 HD
ENDROOT
BRANCH   1   3
HETATM    3  C   UNL     1      34.552  -5.979 -11.842  1.00  0.00     0.139 C 
HETATM    4  O   UNL     1      34.042  -4.934 -11.460  1.00  0.00    -0.650 OA
BRANCH   3   5
HETATM    5  C   UNL     1      33.758  -7.258 -11.901  1.00  0.00     0.110 C 
BRANCH   5   6
HETATM    6  C   UNL     1      33.413  -7.819 -10.513  1.00  0.00     0.010 C 
BRANCH   6   7
HETATM    7  C   UNL     1      33.720  -9.318 -10.433  1.00  0.00     0.001 C 
BRANCH   7   8
HETATM    8  C   UNL     1      33.956  -9.755  -8.982  1.00  0.00     0.000 C 
BRANCH   8   9
HETATM    9  C   UNL     1      33.967  -8.547  -8.038  1.00  0.00     0.000 C 
BRANCH   9  10
HETATM   10  C   UNL     1      33.078  -8.797  -6.815  1.00  0.00     0.000 C 
BRANCH  10  11
HETATM   11  C   UNL     1      31.838  -9.615  -7.194  1.00  0.00     0.000 C 
BRANCH  11  12
HETATM   12  C   UNL     1      31.001  -9.953  -5.954  1.00  0.00     0.000 C 
BRANCH  12  13
HETATM   13  C   UNL     1      29.502  -9.897  -6.270  1.00  0.00     0.000 C 
BRANCH  13  14
HETATM   14  C   UNL     1      28.913 -11.307  -6.400  1.00  0.00     0.000 C 
BRANCH  14  15
HETATM   15  C   UNL     1      29.224 -11.908  -7.776  1.00  0.00     0.000 C 
BRANCH  15  16
HETATM   16  C   UNL     1      28.798 -10.958  -8.901  1.00  0.00     0.000 C 
BRANCH  16  17
HETATM   17  C   UNL     1      29.797 -10.997 -10.063  1.00  0.00    -0.000 C 
BRANCH  17  18
HETATM   18  C   UNL     1      29.141 -11.550 -11.334  1.00  0.00    -0.005 C 
HETATM   19  C   UNL     1      28.653 -10.421 -12.238  1.00  0.00     0.005 C 
ENDBRANCH  17  18
ENDBRANCH  16  17
ENDBRANCH  15  16
ENDBRANCH  14  15
ENDBRANCH  13  14
ENDBRANCH  12  13
ENDBRANCH  11  12
ENDBRANCH  10  11
ENDBRANCH   9  10
ENDBRANCH   8   9
ENDBRANCH   7   8
ENDBRANCH   6   7
ENDBRANCH   5   6
ENDBRANCH   3   5
ENDBRANCH   1   3
TORSDOF 15
ENDMDL
MODEL 15
REMARK VINA RESULT:      -4.4      4.512      7.162
REMARK  15 active torsions:
REMARK  status: ('A' for Active; 'I' for Inactive)
REMARK    1  A    between atoms: O_1  and  C_18 
REMARK    2  A    between atoms: C_3  and  C_4 
REMARK    3  A    between atoms: C_3  and  C_5 
REMARK    4  A    between atoms: C_4  and  C_6 
REMARK    5  A    between atoms: C_5  and  C_7 
REMARK    6  A    between atoms: C_6  and  C_8 
REMARK    7  A    between atoms: C_7  and  C_9 
REMARK    8  A    between atoms: C_8  and  C_10 
REMARK    9  A    between atoms: C_9  and  C_11 
REMARK   10  A    between atoms: C_10  and  C_12 
REMARK   11  A    between atoms: C_11  and  C_13 
REMARK   12  A    between atoms: C_12  and  C_14 
REMARK   13  A    between atoms: C_13  and  C_15 
REMARK   14  A    between atoms: C_14  and  C_16 
REMARK   15  A    between atoms: C_16  and  C_18 
ROOT
HETATM    1  O   UNL     1      29.136 -10.024  -6.422  1.00  0.00    -0.776 OA
HETATM    2  H   UNL     1      29.041  -9.076  -6.590  1.00  0.00     0.167 HD
ENDROOT
BRANCH   1   3
HETATM    3  C   UNL     1      28.814 -10.941  -7.359  1.00  0.00     0.139 C 
HETATM    4  O   UNL     1      27.648 -11.078  -7.699  1.00  0.00    -0.650 OA
BRANCH   3   5
HETATM    5  C   UNL     1      29.909 -11.778  -7.968  1.00  0.00     0.110 C 
BRANCH   5   6
HETATM    6  C   UNL     1      30.506 -11.158  -9.241  1.00  0.00     0.010 C 
BRANCH   6   7
HETATM    7  C   UNL     1      29.401 -10.678 -10.189  1.00  0.00     0.001 C 
BRANCH   7   8
HETATM    8  C   UNL     1      29.635 -11.196 -11.613  1.00  0.00     0.000 C 
BRANCH   8   9
HETATM    9  C   UNL     1      28.331 -11.195 -12.421  1.00  0.00     0.000 C 
BRANCH   9  10
HETATM   10  C   UNL     1      28.615 -11.299 -13.924  1.00  0.00     0.000 C 
BRANCH  10  11
HETATM   11  C   UNL     1      29.902 -10.552 -14.294  1.00  0.00     0.000 C 
BRANCH  11  12
HETATM   12  C   UNL     1      30.679 -11.300 -15.383  1.00  0.00     0.000 C 
BRANCH  12  13
HETATM   13  C   UNL     1      30.943 -10.394 -16.591  1.00  0.00     0.000 C 
BRANCH  13  14
HETATM   14  C   UNL     1      31.718  -9.137 -16.178  1.00  0.00     0.000 C 
BRANCH  14  15
HETATM   15  C   UNL     1      33.166  -9.480 -15.807  1.00  0.00     0.000 C 
BRANCH  15  16
HETATM   16  C   UNL     1      33.581  -8.782 -14.506  1.00  0.00     0.000 C 
BRANCH  16  17
HETATM   17  C   UNL     1      33.928  -9.807 -13.419  1.00  0.00    -0.000 C 
BRANCH  17  18
HETATM   18  C   UNL     1      32.877  -9.801 -12.303  1.00  0.00    -0.005 C 
HETATM   19  C   UNL     1      32.907  -8.489 -11.524  1.00  0.00     0.005 C 
ENDBRANCH  17  18
ENDBRANCH  16  17
ENDBRANCH  15  16
ENDBRANCH  14  15
ENDBRANCH  13  14
ENDBRANCH  12  13
ENDBRANCH  11  12
ENDBRANCH  10  11
ENDBRANCH   9  10
ENDBRANCH   8   9
ENDBRANCH   7   8
ENDBRANCH   6   7
ENDBRANCH   5   6
ENDBRANCH   3   5
ENDBRANCH   1   3
TORSDOF 15
ENDMDL
MODEL 16
REMARK VINA RESULT:      -4.4      4.704      7.280
REMARK  15 active torsions:
REMARK  status: ('A' for Active; 'I' for Inactive)
REMARK    1  A    between atoms: O_1  and  C_18 
REMARK    2  A    between atoms: C_3  and  C_4 
REMARK    3  A    between atoms: C_3  and  C_5 
REMARK    4  A    between atoms: C_4  and  C_6 
REMARK    5  A    between atoms: C_5  and  C_7 
REMARK    6  A    between atoms: C_6  and  C_8 
REMARK    7  A    between atoms: C_7  and  C_9 
REMARK    8  A    between atoms: C_8  and  C_10 
REMARK    9  A    between atoms: C_9  and  C_11 
REMARK   10  A    between atoms: C_10  and  C_12 
REMARK   11  A    between atoms: C_11  and  C_13 
REMARK   12  A    between atoms: C_12  and  C_14 
REMARK   13  A    between atoms: C_13  and  C_15 
REMARK   14  A    between atoms: C_14  and  C_16 
REMARK   15  A    between atoms: C_16  and  C_18 
ROOT
HETATM    1  O   UNL     1      34.038  -8.188 -10.227  1.00  0.00    -0.776 OA
HETATM    2  H   UNL     1      34.777  -7.576 -10.102  1.00  0.00     0.167 HD
ENDROOT
BRANCH   1   3
HETATM    3  C   UNL     1      33.483  -8.383 -11.442  1.00  0.00     0.139 C 
HETATM    4  O   UNL     1      34.189  -8.374 -12.440  1.00  0.00    -0.650 OA
BRANCH   3   5
HETATM    5  C   UNL     1      31.996  -8.609 -11.538  1.00  0.00     0.110 C 
BRANCH   5   6
HETATM    6  C   UNL     1      31.530  -9.877 -10.807  1.00  0.00     0.010 C 
BRANCH   6   7
HETATM    7  C   UNL     1      30.771 -10.811 -11.756  1.00  0.00     0.001 C 
BRANCH   7   8
HETATM    8  C   UNL     1      29.623 -11.520 -11.028  1.00  0.00     0.000 C 
BRANCH   8   9
HETATM    9  C   UNL     1      29.183 -10.729  -9.791  1.00  0.00     0.000 C 
BRANCH   9  10
HETATM   10  C   UNL     1      28.079 -11.469  -9.028  1.00  0.00     0.000 C 
BRANCH  10  11
HETATM   11  C   UNL     1      28.103 -11.110  -7.537  1.00  0.00     0.000 C 
BRANCH  11  12
HETATM   12  C   UNL     1      29.272 -11.798  -6.823  1.00  0.00     0.000 C 
BRANCH  12  13
HETATM   13  C   UNL     1      30.222 -10.768  -6.203  1.00  0.00     0.000 C 
BRANCH  13  14
HETATM   14  C   UNL     1      31.624 -11.359  -6.010  1.00  0.00     0.000 C 
BRANCH  14  15
HETATM   15  C   UNL     1      31.967 -11.489  -4.521  1.00  0.00     0.000 C 
BRANCH  15  16
HETATM   16  C   UNL     1      30.947 -10.740  -3.655  1.00  0.00     0.000 C 
BRANCH  16  17
HETATM   17  C   UNL     1      30.379 -11.653  -2.561  1.00  0.00    -0.000 C 
BRANCH  17  18
HETATM   18  C   UNL     1      28.847 -11.685  -2.614  1.00  0.00    -0.005 C 
HETATM   19  C   UNL     1      28.262 -10.281  -2.495  1.00  0.00     0.005 C 
ENDBRANCH  17  18
ENDBRANCH  16  17
ENDBRANCH  15  16
ENDBRANCH  14  15
ENDBRANCH  13  14
ENDBRANCH  12  13
ENDBRANCH  11  12
ENDBRANCH  10  11
ENDBRANCH   9  10
ENDBRANCH   8   9
ENDBRANCH   7   8
ENDBRANCH   6   7
ENDBRANCH   5   6
ENDBRANCH   3   5
ENDBRANCH   1   3
TORSDOF 15
ENDMDL
MODEL 17
REMARK VINA RESULT:      -4.4      4.406      5.959
REMARK  15 active torsions:
REMARK  status: ('A' for Active; 'I' for Inactive)
REMARK    1  A    between atoms: O_1  and  C_18 
REMARK    2  A    between atoms: C_3  and  C_4 
REMARK    3  A    between atoms: C_3  and  C_5 
REMARK    4  A    between atoms: C_4  and  C_6 
REMARK    5  A    between atoms: C_5  and  C_7 
REMARK    6  A    between atoms: C_6  and  C_8 
REMARK    7  A    between atoms: C_7  and  C_9 
REMARK    8  A    between atoms: C_8  and  C_10 
REMARK    9  A    between atoms: C_9  and  C_11 
REMARK   10  A    between atoms: C_10  and  C_12 
REMARK   11  A    between atoms: C_11  and  C_13 
REMARK   12  A    between atoms: C_12  and  C_14 
REMARK   13  A    between atoms: C_13  and  C_15 
REMARK   14  A    between atoms: C_14  and  C_16 
REMARK   15  A    between atoms: C_16  and  C_18 
ROOT
HETATM    1  O   UNL     1      33.705 -16.256 -12.349  1.00  0.00    -0.776 OA
HETATM    2  H   UNL     1      33.274 -16.927 -12.896  1.00  0.00     0.167 HD
ENDROOT
BRANCH   1   3
HETATM    3  C   UNL     1      34.693 -15.476 -12.837  1.00  0.00     0.139 C 
HETATM    4  O   UNL     1      35.794 -15.959 -13.058  1.00  0.00    -0.650 OA
BRANCH   3   5
HETATM    5  C   UNL     1      34.411 -14.020 -13.100  1.00  0.00     0.110 C 
BRANCH   5   6
HETATM    6  C   UNL     1      33.095 -13.537 -12.471  1.00  0.00     0.010 C 
BRANCH   6   7
HETATM    7  C   UNL     1      32.934 -12.021 -12.630  1.00  0.00     0.001 C 
BRANCH   7   8
HETATM    8  C   UNL     1      32.685 -11.645 -14.096  1.00  0.00     0.000 C 
BRANCH   8   9
HETATM    9  C   UNL     1      32.795 -10.129 -14.302  1.00  0.00     0.000 C 
BRANCH   9  10
HETATM   10  C   UNL     1      32.402  -9.739 -15.732  1.00  0.00     0.000 C 
BRANCH  10  11
HETATM   11  C   UNL     1      31.919 -10.961 -16.523  1.00  0.00     0.000 C 
BRANCH  11  12
HETATM   12  C   UNL     1      30.571 -10.683 -17.198  1.00  0.00     0.000 C 
BRANCH  12  13
HETATM   13  C   UNL     1      29.556 -10.125 -16.193  1.00  0.00     0.000 C 
BRANCH  13  14
HETATM   14  C   UNL     1      29.012 -11.236 -15.287  1.00  0.00     0.000 C 
BRANCH  14  15
HETATM   15  C   UNL     1      29.293 -10.930 -13.811  1.00  0.00     0.000 C 
BRANCH  15  16
HETATM   16  C   UNL     1      28.139 -11.406 -12.921  1.00  0.00     0.000 C 
BRANCH  16  17
HETATM   17  C   UNL     1      28.571 -11.479 -11.451  1.00  0.00    -0.000 C 
BRANCH  17  18
HETATM   18  C   UNL     1      29.629 -10.416 -11.136  1.00  0.00    -0.005 C 
HETATM   19  C   UNL     1      30.563 -10.881 -10.022  1.00  0.00     0.005 C 
ENDBRANCH  17  18
ENDBRANCH  16  17
ENDBRANCH  15  16
ENDBRANCH  14  15
ENDBRANCH  13  14
ENDBRANCH  12  13
ENDBRANCH  11  12
ENDBRANCH  10  11
ENDBRANCH   9  10
ENDBRANCH   8   9
ENDBRANCH   7   8
ENDBRANCH   6   7
ENDBRANCH   5   6
ENDBRANCH   3   5
ENDBRANCH   1   3
TORSDOF 15
ENDMDL
MODEL 18
REMARK VINA RESULT:      -4.4      2.718      6.176
REMARK  15 active torsions:
REMARK  status: ('A' for Active; 'I' for Inactive)
REMARK    1  A    between atoms: O_1  and  C_18 
REMARK    2  A    between atoms: C_3  and  C_4 
REMARK    3  A    between atoms: C_3  and  C_5 
REMARK    4  A    between atoms: C_4  and  C_6 
REMARK    5  A    between atoms: C_5  and  C_7 
REMARK    6  A    between atoms: C_6  and  C_8 
REMARK    7  A    between atoms: C_7  and  C_9 
REMARK    8  A    between atoms: C_8  and  C_10 
REMARK    9  A    between atoms: C_9  and  C_11 
REMARK   10  A    between atoms: C_10  and  C_12 
REMARK   11  A    between atoms: C_11  and  C_13 
REMARK   12  A    between atoms: C_12  and  C_14 
REMARK   13  A    between atoms: C_13  and  C_15 
REMARK   14  A    between atoms: C_14  and  C_16 
REMARK   15  A    between atoms: C_16  and  C_18 
ROOT
HETATM    1  O   UNL     1      34.096  -8.292  -9.958  1.00  0.00    -0.776 OA
HETATM    2  H   UNL     1      34.650  -9.037  -9.686  1.00  0.00     0.167 HD
ENDROOT
BRANCH   1   3
HETATM    3  C   UNL     1      33.494  -8.267 -11.166  1.00  0.00     0.139 C 
HETATM    4  O   UNL     1      34.092  -7.819 -12.134  1.00  0.00    -0.650 OA
BRANCH   3   5
HETATM    5  C   UNL     1      32.089  -8.797 -11.293  1.00  0.00     0.110 C 
BRANCH   5   6
HETATM    6  C   UNL     1      31.779  -9.928 -10.300  1.00  0.00     0.010 C 
BRANCH   6   7
HETATM    7  C   UNL     1      30.596 -10.775 -10.784  1.00  0.00     0.001 C 
BRANCH   7   8
HETATM    8  C   UNL     1      31.061 -11.864 -11.759  1.00  0.00     0.000 C 
BRANCH   8   9
HETATM    9  C   UNL     1      30.661 -11.521 -13.199  1.00  0.00     0.000 C 
BRANCH   9  10
HETATM   10  C   UNL     1      29.136 -11.521 -13.360  1.00  0.00     0.000 C 
BRANCH  10  11
HETATM   11  C   UNL     1      28.721 -10.816 -14.657  1.00  0.00     0.000 C 
BRANCH  11  12
HETATM   12  C   UNL     1      29.838 -10.884 -15.704  1.00  0.00     0.000 C 
BRANCH  12  13
HETATM   13  C   UNL     1      29.412 -11.726 -16.911  1.00  0.00     0.000 C 
BRANCH  13  14
HETATM   14  C   UNL     1      28.667 -10.871 -17.944  1.00  0.00     0.000 C 
BRANCH  14  15
HETATM   15  C   UNL     1      29.241 -11.083 -19.350  1.00  0.00     0.000 C 
BRANCH  15  16
HETATM   16  C   UNL     1      30.768 -11.211 -19.308  1.00  0.00     0.000 C 
BRANCH  16  17
HETATM   17  C   UNL     1      31.433 -10.182 -20.230  1.00  0.00    -0.000 C 
BRANCH  17  18
HETATM   18  C   UNL     1      32.617  -9.503 -19.533  1.00  0.00    -0.005 C 
HETATM   19  C   UNL     1      32.474  -9.569 -18.015  1.00  0.00     0.005 C 
ENDBRANCH  17  18
ENDBRANCH  16  17
ENDBRANCH  15  16
ENDBRANCH  14  15
ENDBRANCH  13  14
ENDBRANCH  12  13
ENDBRANCH  11  12
ENDBRANCH  10  11
ENDBRANCH   9  10
ENDBRANCH   8   9
ENDBRANCH   7   8
ENDBRANCH   6   7
ENDBRANCH   5   6
ENDBRANCH   3   5
ENDBRANCH   1   3
TORSDOF 15
ENDMDL
MODEL 19
REMARK VINA RESULT:      -4.4      3.912      6.072
REMARK  15 active torsions:
REMARK  status: ('A' for Active; 'I' for Inactive)
REMARK    1  A    between atoms: O_1  and  C_18 
REMARK    2  A    between atoms: C_3  and  C_4 
REMARK    3  A    between atoms: C_3  and  C_5 
REMARK    4  A    between atoms: C_4  and  C_6 
REMARK    5  A    between atoms: C_5  and  C_7 
REMARK    6  A    between atoms: C_6  and  C_8 
REMARK    7  A    between atoms: C_7  and  C_9 
REMARK    8  A    between atoms: C_8  and  C_10 
REMARK    9  A    between atoms: C_9  and  C_11 
REMARK   10  A    between atoms: C_10  and  C_12 
REMARK   11  A    between atoms: C_11  and  C_13 
REMARK   12  A    between atoms: C_12  and  C_14 
REMARK   13  A    between atoms: C_13  and  C_15 
REMARK   14  A    between atoms: C_14  and  C_16 
REMARK   15  A    between atoms: C_16  and  C_18 
ROOT
HETATM    1  O   UNL     1      34.560 -14.943 -14.194  1.00  0.00    -0.776 OA
HETATM    2  H   UNL     1      35.390 -15.390 -14.412  1.00  0.00     0.167 HD
ENDROOT
BRANCH   1   3
HETATM    3  C   UNL     1      34.069 -13.953 -14.969  1.00  0.00     0.139 C 
HETATM    4  O   UNL     1      33.687 -14.202 -16.104  1.00  0.00    -0.650 OA
BRANCH   3   5
HETATM    5  C   UNL     1      34.003 -12.554 -14.412  1.00  0.00     0.110 C 
BRANCH   5   6
HETATM    6  C   UNL     1      32.576 -12.121 -14.041  1.00  0.00     0.010 C 
BRANCH   6   7
HETATM    7  C   UNL     1      32.126 -12.777 -12.731  1.00  0.00     0.001 C 
BRANCH   7   8
HETATM    8  C   UNL     1      32.679 -12.021 -11.518  1.00  0.00     0.000 C 
BRANCH   8   9
HETATM    9  C   UNL     1      31.825 -10.787 -11.201  1.00  0.00     0.000 C 
BRANCH   9  10
HETATM   10  C   UNL     1      30.832 -11.082 -10.071  1.00  0.00     0.000 C 
BRANCH  10  11
HETATM   11  C   UNL     1      29.423 -10.601 -10.438  1.00  0.00     0.000 C 
BRANCH  11  12
HETATM   12  C   UNL     1      28.776 -11.528 -11.474  1.00  0.00     0.000 C 
BRANCH  12  13
HETATM   13  C   UNL     1      28.317 -10.741 -12.706  1.00  0.00     0.000 C 
BRANCH  13  14
HETATM   14  C   UNL     1      28.632 -11.507 -13.997  1.00  0.00     0.000 C 
BRANCH  14  15
HETATM   15  C   UNL     1      29.422 -10.632 -14.978  1.00  0.00     0.000 C 
BRANCH  15  16
HETATM   16  C   UNL     1      28.983 -10.891 -16.423  1.00  0.00     0.000 C 
BRANCH  16  17
HETATM   17  C   UNL     1      29.929 -11.880 -17.116  1.00  0.00    -0.000 C 
BRANCH  17  18
HETATM   18  C   UNL     1      31.309 -11.253 -17.345  1.00  0.00    -0.005 C 
HETATM   19  C   UNL     1      32.106 -12.040 -18.382  1.00  0.00     0.005 C 
ENDBRANCH  17  18
ENDBRANCH  16  17
ENDBRANCH  15  16
ENDBRANCH  14  15
ENDBRANCH  13  14
ENDBRANCH  12  13
ENDBRANCH  11  12
ENDBRANCH  10  11
ENDBRANCH   9  10
ENDBRANCH   8   9
ENDBRANCH   7   8
ENDBRANCH   6   7
ENDBRANCH   5   6
ENDBRANCH   3   5
ENDBRANCH   1   3
TORSDOF 15
ENDMDL
MODEL 20
REMARK VINA RESULT:      -4.3      4.613      6.473
REMARK  15 active torsions:
REMARK  status: ('A' for Active; 'I' for Inactive)
REMARK    1  A    between atoms: O_1  and  C_18 
REMARK    2  A    between atoms: C_3  and  C_4 
REMARK    3  A    between atoms: C_3  and  C_5 
REMARK    4  A    between atoms: C_4  and  C_6 
REMARK    5  A    between atoms: C_5  and  C_7 
REMARK    6  A    between atoms: C_6  and  C_8 
REMARK    7  A    between atoms: C_7  and  C_9 
REMARK    8  A    between atoms: C_8  and  C_10 
REMARK    9  A    between atoms: C_9  and  C_11 
REMARK   10  A    between atoms: C_10  and  C_12 
REMARK   11  A    between atoms: C_11  and  C_13 
REMARK   12  A    between atoms: C_12  and  C_14 
REMARK   13  A    between atoms: C_13  and  C_15 
REMARK   14  A    between atoms: C_14  and  C_16 
REMARK   15  A    between atoms: C_16  and  C_18 
ROOT
HETATM    1  O   UNL     1      27.270 -11.574 -17.469  1.00  0.00    -0.776 OA
HETATM    2  H   UNL     1      27.206 -12.214 -16.747  1.00  0.00     0.167 HD
ENDROOT
BRANCH   1   3
HETATM    3  C   UNL     1      28.458 -11.054 -17.846  1.00  0.00     0.139 C 
HETATM    4  O   UNL     1      28.823 -11.153 -19.009  1.00  0.00    -0.650 OA
BRANCH   3   5
HETATM    5  C   UNL     1      29.311 -10.359 -16.817  1.00  0.00     0.110 C 
BRANCH   5   6
HETATM    6  C   UNL     1      29.359 -11.101 -15.472  1.00  0.00     0.010 C 
BRANCH   6   7
HETATM    7  C   UNL     1      30.801 -11.450 -15.089  1.00  0.00     0.001 C 
BRANCH   7   8
HETATM    8  C   UNL     1      31.032 -11.259 -13.585  1.00  0.00     0.000 C 
BRANCH   8   9
HETATM    9  C   UNL     1      29.702 -11.082 -12.841  1.00  0.00     0.000 C 
BRANCH   9  10
HETATM   10  C   UNL     1      29.890 -11.252 -11.330  1.00  0.00     0.000 C 
BRANCH  10  11
HETATM   11  C   UNL     1      31.330 -10.927 -10.914  1.00  0.00     0.000 C 
BRANCH  11  12
HETATM   12  C   UNL     1      31.388 -10.441  -9.461  1.00  0.00     0.000 C 
BRANCH  12  13
HETATM   13  C   UNL     1      30.678 -11.424  -8.523  1.00  0.00     0.000 C 
BRANCH  13  14
HETATM   14  C   UNL     1      29.718 -10.688  -7.580  1.00  0.00     0.000 C 
BRANCH  14  15
HETATM   15  C   UNL     1      29.027 -11.668  -6.624  1.00  0.00     0.000 C 
BRANCH  15  16
HETATM   16  C   UNL     1      28.864 -11.053  -5.230  1.00  0.00     0.000 C 
BRANCH  16  17
HETATM   17  C   UNL     1      30.168 -11.152  -4.429  1.00  0.00    -0.000 C 
BRANCH  17  18
HETATM   18  C   UNL     1      29.892 -11.564  -2.978  1.00  0.00    -0.005 C 
HETATM   19  C   UNL     1      30.171 -10.413  -2.016  1.00  0.00     0.005 C 
ENDBRANCH  17  18
ENDBRANCH  16  17
ENDBRANCH  15  16
ENDBRANCH  14  15
ENDBRANCH  13  14
ENDBRANCH  12  13
ENDBRANCH  11  12
ENDBRANCH  10  11
ENDBRANCH   9  10
ENDBRANCH   8   9
ENDBRANCH   7   8
ENDBRANCH   6   7
ENDBRANCH   5   6
ENDBRANCH   3   5
ENDBRANCH   1   3
TORSDOF 15
ENDMDL
