MODEL 1
REMARK VINA RESULT:      -4.6      0.000      0.000
REMARK  15 active torsions:
REMARK  status: ('A' for Active; 'I' for Inactive)
REMARK    1  A    between atoms: O_1  and  C_18 
REMARK    2  A    between atoms: C_3  and  C_4 
REMARK    3  A    between atoms: C_3  and  C_5 
REMARK    4  A    between atoms: C_4  and  C_6 
REMARK    5  A    between atoms: C_5  and  C_7 
REMARK    6  A    between atoms: C_6  and  C_8 
REMARK    7  A    between atoms: C_7  and  C_9 
REMARK    8  A    between atoms: C_8  and  C_10 
REMARK    9  A    between atoms: C_9  and  C_11 
REMARK   10  A    between atoms: C_10  and  C_12 
REMARK   11  A    between atoms: C_11  and  C_13 
REMARK   12  A    between atoms: C_12  and  C_14 
REMARK   13  A    between atoms: C_13  and  C_15 
REMARK   14  A    between atoms: C_14  and  C_16 
REMARK   15  A    between atoms: C_16  and  C_18 
ROOT
HETATM    1  O   UNL     1      34.786  -6.787  -7.882  1.00  0.00    -0.776 OA
HETATM    2  H   UNL     1      34.627  -6.848  -8.834  1.00  0.00     0.167 HD
ENDROOT
BRANCH   1   3
HETATM    3  C   UNL     1      34.033  -7.473  -6.996  1.00  0.00     0.139 C 
HETATM    4  O   UNL     1      34.018  -7.134  -5.821  1.00  0.00    -0.650 OA
BRANCH   3   5
HETATM    5  C   UNL     1      33.222  -8.647  -7.481  1.00  0.00     0.110 C 
BRANCH   5   6
HETATM    6  C   UNL     1      32.173  -9.117  -6.463  1.00  0.00     0.010 C 
BRANCH   6   7
HETATM    7  C   UNL     1      32.699 -10.296  -5.636  1.00  0.00     0.001 C 
BRANCH   7   8
HETATM    8  C   UNL     1      31.612 -11.360  -5.442  1.00  0.00     0.000 C 
BRANCH   8   9
HETATM    9  C   UNL     1      30.474 -10.831  -4.561  1.00  0.00     0.000 C 
BRANCH   9  10
HETATM   10  C   UNL     1      29.114 -11.030  -5.241  1.00  0.00     0.000 C 
BRANCH  10  11
HETATM   11  C   UNL     1      29.277 -11.700  -6.610  1.00  0.00     0.000 C 
BRANCH  11  12
HETATM   12  C   UNL     1      28.417 -11.003  -7.671  1.00  0.00     0.000 C 
BRANCH  12  13
HETATM   13  C   UNL     1      29.209 -10.783  -8.964  1.00  0.00     0.000 C 
BRANCH  13  14
HETATM   14  C   UNL     1      30.595 -11.433  -8.878  1.00  0.00     0.000 C 
BRANCH  14  15
HETATM   15  C   UNL     1      31.411 -11.161 -10.147  1.00  0.00     0.000 C 
BRANCH  15  16
HETATM   16  C   UNL     1      30.707 -10.138 -11.045  1.00  0.00     0.000 C 
BRANCH  16  17
HETATM   17  C   UNL     1      30.553 -10.673 -12.474  1.00  0.00    -0.000 C 
BRANCH  17  18
HETATM   18  C   UNL     1      29.476 -11.761 -12.541  1.00  0.00    -0.005 C 
HETATM   19  C   UNL     1      28.091 -11.154 -12.749  1.00  0.00     0.005 C 
ENDBRANCH  17  18
ENDBRANCH  16  17
ENDBRANCH  15  16
ENDBRANCH  14  15
ENDBRANCH  13  14
ENDBRANCH  12  13
ENDBRANCH  11  12
ENDBRANCH  10  11
ENDBRANCH   9  10
ENDBRANCH   8   9
ENDBRANCH   7   8
ENDBRANCH   6   7
ENDBRANCH   5   6
ENDBRANCH   3   5
ENDBRANCH   1   3
TORSDOF 15
ENDMDL
MODEL 2
REMARK VINA RESULT:      -4.6      3.828      5.367
REMARK  15 active torsions:
REMARK  status: ('A' for Active; 'I' for Inactive)
REMARK    1  A    between atoms: O_1  and  C_18 
REMARK    2  A    between atoms: C_3  and  C_4 
REMARK    3  A    between atoms: C_3  and  C_5 
REMARK    4  A    between atoms: C_4  and  C_6 
REMARK    5  A    between atoms: C_5  and  C_7 
REMARK    6  A    between atoms: C_6  and  C_8 
REMARK    7  A    between atoms: C_7  and  C_9 
REMARK    8  A    between atoms: C_8  and  C_10 
REMARK    9  A    between atoms: C_9  and  C_11 
REMARK   10  A    between atoms: C_10  and  C_12 
REMARK   11  A    between atoms: C_11  and  C_13 
REMARK   12  A    between atoms: C_12  and  C_14 
REMARK   13  A    between atoms: C_13  and  C_15 
REMARK   14  A    between atoms: C_14  and  C_16 
REMARK   15  A    between atoms: C_16  and  C_18 
ROOT
HETATM    1  O   UNL     1      35.641  -6.061 -12.270  1.00  0.00    -0.776 OA
HETATM    2  H   UNL     1      35.516  -6.232 -13.214  1.00  0.00     0.167 HD
ENDROOT
BRANCH   1   3
HETATM    3  C   UNL     1      34.602  -5.748 -11.468  1.00  0.00     0.139 C 
HETATM    4  O   UNL     1      34.662  -4.755 -10.756  1.00  0.00    -0.650 OA
BRANCH   3   5
HETATM    5  C   UNL     1      33.384  -6.635 -11.470  1.00  0.00     0.110 C 
BRANCH   5   6
HETATM    6  C   UNL     1      33.716  -8.116 -11.233  1.00  0.00     0.010 C 
BRANCH   6   7
HETATM    7  C   UNL     1      33.478  -8.943 -12.502  1.00  0.00     0.001 C 
BRANCH   7   8
HETATM    8  C   UNL     1      32.136  -9.683 -12.432  1.00  0.00     0.000 C 
BRANCH   8   9
HETATM    9  C   UNL     1      32.276 -11.005 -11.669  1.00  0.00     0.000 C 
BRANCH   9  10
HETATM   10  C   UNL     1      31.263 -11.088 -10.521  1.00  0.00     0.000 C 
BRANCH  10  11
HETATM   11  C   UNL     1      29.902 -10.524 -10.948  1.00  0.00     0.000 C 
BRANCH  11  12
HETATM   12  C   UNL     1      29.042 -11.605 -11.614  1.00  0.00     0.000 C 
BRANCH  12  13
HETATM   13  C   UNL     1      28.047 -10.985 -12.602  1.00  0.00     0.000 C 
BRANCH  13  14
HETATM   14  C   UNL     1      28.240 -11.561 -14.011  1.00  0.00     0.000 C 
BRANCH  14  15
HETATM   15  C   UNL     1      29.591 -11.135 -14.599  1.00  0.00     0.000 C 
BRANCH  15  16
HETATM   16  C   UNL     1      29.399 -10.255 -15.839  1.00  0.00     0.000 C 
BRANCH  16  17
HETATM   17  C   UNL     1      30.356 -10.671 -16.963  1.00  0.00    -0.000 C 
BRANCH  17  18
HETATM   18  C   UNL     1      29.582 -11.122 -18.206  1.00  0.00    -0.005 C 
HETATM   19  C   UNL     1      28.115 -11.385 -17.877  1.00  0.00     0.005 C 
ENDBRANCH  17  18
ENDBRANCH  16  17
ENDBRANCH  15  16
ENDBRANCH  14  15
ENDBRANCH  13  14
ENDBRANCH  12  13
ENDBRANCH  11  12
ENDBRANCH  10  11
ENDBRANCH   9  10
ENDBRANCH   8   9
ENDBRANCH   7   8
ENDBRANCH   6   7
ENDBRANCH   5   6
ENDBRANCH   3   5
ENDBRANCH   1   3
TORSDOF 15
ENDMDL
MODEL 3
REMARK VINA RESULT:      -4.5      3.880      5.629
REMARK  15 active torsions:
REMARK  status: ('A' for Active; 'I' for Inactive)
REMARK    1  A    between atoms: O_1  and  C_18 
REMARK    2  A    between atoms: C_3  and  C_4 
REMARK    3  A    between atoms: C_3  and  C_5 
REMARK    4  A    between atoms: C_4  and  C_6 
REMARK    5  A    between atoms: C_5  and  C_7 
REMARK    6  A    between atoms: C_6  and  C_8 
REMARK    7  A    between atoms: C_7  and  C_9 
REMARK    8  A    between atoms: C_8  and  C_10 
REMARK    9  A    between atoms: C_9  and  C_11 
REMARK   10  A    between atoms: C_10  and  C_12 
REMARK   11  A    between atoms: C_11  and  C_13 
REMARK   12  A    between atoms: C_12  and  C_14 
REMARK   13  A    between atoms: C_13  and  C_15 
REMARK   14  A    between atoms: C_14  and  C_16 
REMARK   15  A    between atoms: C_16  and  C_18 
ROOT
HETATM    1  O   UNL     1      35.644  -6.018 -12.538  1.00  0.00    -0.776 OA
HETATM    2  H   UNL     1      36.506  -5.981 -12.101  1.00  0.00     0.167 HD
ENDROOT
BRANCH   1   3
HETATM    3  C   UNL     1      34.530  -6.382 -11.869  1.00  0.00     0.139 C 
HETATM    4  O   UNL     1      34.085  -5.658 -10.990  1.00  0.00    -0.650 OA
BRANCH   3   5
HETATM    5  C   UNL     1      33.857  -7.682 -12.226  1.00  0.00     0.110 C 
BRANCH   5   6
HETATM    6  C   UNL     1      33.319  -8.439 -11.001  1.00  0.00     0.010 C 
BRANCH   6   7
HETATM    7  C   UNL     1      31.935  -9.033 -11.287  1.00  0.00     0.001 C 
BRANCH   7   8
HETATM    8  C   UNL     1      31.791 -10.422 -10.654  1.00  0.00     0.000 C 
BRANCH   8   9
HETATM    9  C   UNL     1      30.452 -11.065 -11.034  1.00  0.00     0.000 C 
BRANCH   9  10
HETATM   10  C   UNL     1      29.375  -9.998 -11.260  1.00  0.00     0.000 C 
BRANCH  10  11
HETATM   11  C   UNL     1      28.506 -10.342 -12.476  1.00  0.00     0.000 C 
BRANCH  11  12
HETATM   12  C   UNL     1      29.221 -11.334 -13.401  1.00  0.00     0.000 C 
BRANCH  12  13
HETATM   13  C   UNL     1      29.383 -10.753 -14.810  1.00  0.00     0.000 C 
BRANCH  13  14
HETATM   14  C   UNL     1      30.731 -11.159 -15.420  1.00  0.00     0.000 C 
BRANCH  14  15
HETATM   15  C   UNL     1      31.871 -10.966 -14.413  1.00  0.00     0.000 C 
BRANCH  15  16
HETATM   16  C   UNL     1      33.035 -10.191 -15.042  1.00  0.00     0.000 C 
BRANCH  16  17
HETATM   17  C   UNL     1      32.579  -8.809 -15.523  1.00  0.00    -0.000 C 
BRANCH  17  18
HETATM   18  C   UNL     1      33.315  -8.402 -16.804  1.00  0.00    -0.005 C 
HETATM   19  C   UNL     1      33.589  -9.614 -17.691  1.00  0.00     0.005 C 
ENDBRANCH  17  18
ENDBRANCH  16  17
ENDBRANCH  15  16
ENDBRANCH  14  15
ENDBRANCH  13  14
ENDBRANCH  12  13
ENDBRANCH  11  12
ENDBRANCH  10  11
ENDBRANCH   9  10
ENDBRANCH   8   9
ENDBRANCH   7   8
ENDBRANCH   6   7
ENDBRANCH   5   6
ENDBRANCH   3   5
ENDBRANCH   1   3
TORSDOF 15
ENDMDL
MODEL 4
REMARK VINA RESULT:      -4.5     15.985     18.085
REMARK  15 active torsions:
REMARK  status: ('A' for Active; 'I' for Inactive)
REMARK    1  A    between atoms: O_1  and  C_18 
REMARK    2  A    between atoms: C_3  and  C_4 
REMARK    3  A    between atoms: C_3  and  C_5 
REMARK    4  A    between atoms: C_4  and  C_6 
REMARK    5  A    between atoms: C_5  and  C_7 
REMARK    6  A    between atoms: C_6  and  C_8 
REMARK    7  A    between atoms: C_7  and  C_9 
REMARK    8  A    between atoms: C_8  and  C_10 
REMARK    9  A    between atoms: C_9  and  C_11 
REMARK   10  A    between atoms: C_10  and  C_12 
REMARK   11  A    between atoms: C_11  and  C_13 
REMARK   12  A    between atoms: C_12  and  C_14 
REMARK   13  A    between atoms: C_13  and  C_15 
REMARK   14  A    between atoms: C_14  and  C_16 
REMARK   15  A    between atoms: C_16  and  C_18 
ROOT
HETATM    1  O   UNL     1      47.550  -6.725  -6.648  1.00  0.00    -0.776 OA
HETATM    2  H   UNL     1      48.353  -6.982  -7.120  1.00  0.00     0.167 HD
ENDROOT
BRANCH   1   3
HETATM    3  C   UNL     1      47.592  -5.884  -5.592  1.00  0.00     0.139 C 
HETATM    4  O   UNL     1      48.123  -6.243  -4.551  1.00  0.00    -0.650 OA
BRANCH   3   5
HETATM    5  C   UNL     1      46.980  -4.514  -5.725  1.00  0.00     0.110 C 
BRANCH   5   6
HETATM    6  C   UNL     1      45.618  -4.391  -5.025  1.00  0.00     0.010 C 
BRANCH   6   7
HETATM    7  C   UNL     1      44.717  -3.384  -5.749  1.00  0.00     0.001 C 
BRANCH   7   8
HETATM    8  C   UNL     1      44.383  -2.193  -4.842  1.00  0.00     0.000 C 
BRANCH   8   9
HETATM    9  C   UNL     1      44.765  -2.486  -3.386  1.00  0.00     0.000 C 
BRANCH   9  10
HETATM   10  C   UNL     1      45.218  -1.209  -2.669  1.00  0.00     0.000 C 
BRANCH  10  11
HETATM   11  C   UNL     1      45.262  -1.417  -1.150  1.00  0.00     0.000 C 
BRANCH  11  12
HETATM   12  C   UNL     1      43.886  -1.822  -0.609  1.00  0.00     0.000 C 
BRANCH  12  13
HETATM   13  C   UNL     1      43.995  -3.039   0.317  1.00  0.00     0.000 C 
BRANCH  13  14
HETATM   14  C   UNL     1      44.766  -4.179  -0.361  1.00  0.00     0.000 C 
BRANCH  14  15
HETATM   15  C   UNL     1      45.829  -4.759   0.579  1.00  0.00     0.000 C 
BRANCH  15  16
HETATM   16  C   UNL     1      47.241  -4.391   0.108  1.00  0.00     0.000 C 
BRANCH  16  17
HETATM   17  C   UNL     1      47.474  -4.843  -1.338  1.00  0.00    -0.000 C 
BRANCH  17  18
HETATM   18  C   UNL     1      48.020  -3.694  -2.193  1.00  0.00    -0.005 C 
HETATM   19  C   UNL     1      48.801  -2.697  -1.341  1.00  0.00     0.005 C 
ENDBRANCH  17  18
ENDBRANCH  16  17
ENDBRANCH  15  16
ENDBRANCH  14  15
ENDBRANCH  13  14
ENDBRANCH  12  13
ENDBRANCH  11  12
ENDBRANCH  10  11
ENDBRANCH   9  10
ENDBRANCH   8   9
ENDBRANCH   7   8
ENDBRANCH   6   7
ENDBRANCH   5   6
ENDBRANCH   3   5
ENDBRANCH   1   3
TORSDOF 15
ENDMDL
MODEL 5
REMARK VINA RESULT:      -4.5      1.522      3.703
REMARK  15 active torsions:
REMARK  status: ('A' for Active; 'I' for Inactive)
REMARK    1  A    between atoms: O_1  and  C_18 
REMARK    2  A    between atoms: C_3  and  C_4 
REMARK    3  A    between atoms: C_3  and  C_5 
REMARK    4  A    between atoms: C_4  and  C_6 
REMARK    5  A    between atoms: C_5  and  C_7 
REMARK    6  A    between atoms: C_6  and  C_8 
REMARK    7  A    between atoms: C_7  and  C_9 
REMARK    8  A    between atoms: C_8  and  C_10 
REMARK    9  A    between atoms: C_9  and  C_11 
REMARK   10  A    between atoms: C_10  and  C_12 
REMARK   11  A    between atoms: C_11  and  C_13 
REMARK   12  A    between atoms: C_12  and  C_14 
REMARK   13  A    between atoms: C_13  and  C_15 
REMARK   14  A    between atoms: C_14  and  C_16 
REMARK   15  A    between atoms: C_16  and  C_18 
ROOT
HETATM    1  O   UNL     1      35.572  -6.219  -7.561  1.00  0.00    -0.776 OA
HETATM    2  H   UNL     1      36.476  -6.143  -7.224  1.00  0.00     0.167 HD
ENDROOT
BRANCH   1   3
HETATM    3  C   UNL     1      34.505  -5.925  -6.789  1.00  0.00     0.139 C 
HETATM    4  O   UNL     1      34.205  -4.757  -6.587  1.00  0.00    -0.650 OA
BRANCH   3   5
HETATM    5  C   UNL     1      33.703  -7.053  -6.192  1.00  0.00     0.110 C 
BRANCH   5   6
HETATM    6  C   UNL     1      33.443  -8.199  -7.182  1.00  0.00     0.010 C 
BRANCH   6   7
HETATM    7  C   UNL     1      33.432  -9.553  -6.464  1.00  0.00     0.001 C 
BRANCH   7   8
HETATM    8  C   UNL     1      33.719  -9.384  -4.967  1.00  0.00     0.000 C 
BRANCH   8   9
HETATM    9  C   UNL     1      34.165 -10.710  -4.339  1.00  0.00     0.000 C 
BRANCH   9  10
HETATM   10  C   UNL     1      33.052 -11.761  -4.425  1.00  0.00     0.000 C 
BRANCH  10  11
HETATM   11  C   UNL     1      32.609 -12.209  -3.026  1.00  0.00     0.000 C 
BRANCH  11  12
HETATM   12  C   UNL     1      31.083 -12.163  -2.891  1.00  0.00     0.000 C 
BRANCH  12  13
HETATM   13  C   UNL     1      30.525 -10.829  -3.397  1.00  0.00     0.000 C 
BRANCH  13  14
HETATM   14  C   UNL     1      29.481 -11.051  -4.498  1.00  0.00     0.000 C 
BRANCH  14  15
HETATM   15  C   UNL     1      29.902 -10.364  -5.803  1.00  0.00     0.000 C 
BRANCH  15  16
HETATM   16  C   UNL     1      30.206 -11.396  -6.895  1.00  0.00     0.000 C 
BRANCH  16  17
HETATM   17  C   UNL     1      29.775 -10.882  -8.274  1.00  0.00    -0.000 C 
BRANCH  17  18
HETATM   18  C   UNL     1      30.795 -11.273  -9.349  1.00  0.00    -0.005 C 
HETATM   19  C   UNL     1      30.225 -11.065 -10.750  1.00  0.00     0.005 C 
ENDBRANCH  17  18
ENDBRANCH  16  17
ENDBRANCH  15  16
ENDBRANCH  14  15
ENDBRANCH  13  14
ENDBRANCH  12  13
ENDBRANCH  11  12
ENDBRANCH  10  11
ENDBRANCH   9  10
ENDBRANCH   8   9
ENDBRANCH   7   8
ENDBRANCH   6   7
ENDBRANCH   5   6
ENDBRANCH   3   5
ENDBRANCH   1   3
TORSDOF 15
ENDMDL
MODEL 6
REMARK VINA RESULT:      -4.4      4.775      8.267
REMARK  15 active torsions:
REMARK  status: ('A' for Active; 'I' for Inactive)
REMARK    1  A    between atoms: O_1  and  C_18 
REMARK    2  A    between atoms: C_3  and  C_4 
REMARK    3  A    between atoms: C_3  and  C_5 
REMARK    4  A    between atoms: C_4  and  C_6 
REMARK    5  A    between atoms: C_5  and  C_7 
REMARK    6  A    between atoms: C_6  and  C_8 
REMARK    7  A    between atoms: C_7  and  C_9 
REMARK    8  A    between atoms: C_8  and  C_10 
REMARK    9  A    between atoms: C_9  and  C_11 
REMARK   10  A    between atoms: C_10  and  C_12 
REMARK   11  A    between atoms: C_11  and  C_13 
REMARK   12  A    between atoms: C_12  and  C_14 
REMARK   13  A    between atoms: C_13  and  C_15 
REMARK   14  A    between atoms: C_14  and  C_16 
REMARK   15  A    between atoms: C_16  and  C_18 
ROOT
HETATM    1  O   UNL     1      35.481  -6.088 -17.384  1.00  0.00    -0.776 OA
HETATM    2  H   UNL     1      35.264  -6.426 -18.264  1.00  0.00     0.167 HD
ENDROOT
BRANCH   1   3
HETATM    3  C   UNL     1      34.517  -5.793 -16.486  1.00  0.00     0.139 C 
HETATM    4  O   UNL     1      34.348  -4.633 -16.137  1.00  0.00    -0.650 OA
BRANCH   3   5
HETATM    5  C   UNL     1      33.667  -6.907 -15.934  1.00  0.00     0.110 C 
BRANCH   5   6
HETATM    6  C   UNL     1      33.608  -8.135 -16.857  1.00  0.00     0.010 C 
BRANCH   6   7
HETATM    7  C   UNL     1      33.192  -9.388 -16.078  1.00  0.00     0.001 C 
BRANCH   7   8
HETATM    8  C   UNL     1      32.596 -10.445 -17.016  1.00  0.00     0.000 C 
BRANCH   8   9
HETATM    9  C   UNL     1      31.092 -10.220 -17.215  1.00  0.00     0.000 C 
BRANCH   9  10
HETATM   10  C   UNL     1      30.273 -11.170 -16.334  1.00  0.00     0.000 C 
BRANCH  10  11
HETATM   11  C   UNL     1      29.644 -10.420 -15.154  1.00  0.00     0.000 C 
BRANCH  11  12
HETATM   12  C   UNL     1      29.664 -11.277 -13.883  1.00  0.00     0.000 C 
BRANCH  12  13
HETATM   13  C   UNL     1      31.068 -11.827 -13.612  1.00  0.00     0.000 C 
BRANCH  13  14
HETATM   14  C   UNL     1      31.347 -11.908 -12.106  1.00  0.00     0.000 C 
BRANCH  14  15
HETATM   15  C   UNL     1      30.289 -11.137 -11.308  1.00  0.00     0.000 C 
BRANCH  15  16
HETATM   16  C   UNL     1      30.914 -10.444 -10.092  1.00  0.00     0.000 C 
BRANCH  16  17
HETATM   17  C   UNL     1      32.313  -9.911 -10.421  1.00  0.00    -0.000 C 
BRANCH  17  18
HETATM   18  C   UNL     1      32.230  -8.642 -11.278  1.00  0.00    -0.005 C 
HETATM   19  C   UNL     1      33.273  -8.661 -12.392  1.00  0.00     0.005 C 
ENDBRANCH  17  18
ENDBRANCH  16  17
ENDBRANCH  15  16
ENDBRANCH  14  15
ENDBRANCH  13  14
ENDBRANCH  12  13
ENDBRANCH  11  12
ENDBRANCH  10  11
ENDBRANCH   9  10
ENDBRANCH   8   9
ENDBRANCH   7   8
ENDBRANCH   6   7
ENDBRANCH   5   6
ENDBRANCH   3   5
ENDBRANCH   1   3
TORSDOF 15
ENDMDL
MODEL 7
REMARK VINA RESULT:      -4.3      1.384      2.625
REMARK  15 active torsions:
REMARK  status: ('A' for Active; 'I' for Inactive)
REMARK    1  A    between atoms: O_1  and  C_18 
REMARK    2  A    between atoms: C_3  and  C_4 
REMARK    3  A    between atoms: C_3  and  C_5 
REMARK    4  A    between atoms: C_4  and  C_6 
REMARK    5  A    between atoms: C_5  and  C_7 
REMARK    6  A    between atoms: C_6  and  C_8 
REMARK    7  A    between atoms: C_7  and  C_9 
REMARK    8  A    between atoms: C_8  and  C_10 
REMARK    9  A    between atoms: C_9  and  C_11 
REMARK   10  A    between atoms: C_10  and  C_12 
REMARK   11  A    between atoms: C_11  and  C_13 
REMARK   12  A    between atoms: C_12  and  C_14 
REMARK   13  A    between atoms: C_13  and  C_15 
REMARK   14  A    between atoms: C_14  and  C_16 
REMARK   15  A    between atoms: C_16  and  C_18 
ROOT
HETATM    1  O   UNL     1      34.904  -6.729  -7.890  1.00  0.00    -0.776 OA
HETATM    2  H   UNL     1      34.791  -6.743  -8.851  1.00  0.00     0.167 HD
ENDROOT
BRANCH   1   3
HETATM    3  C   UNL     1      34.147  -7.501  -7.081  1.00  0.00     0.139 C 
HETATM    4  O   UNL     1      34.037  -7.215  -5.898  1.00  0.00    -0.650 OA
BRANCH   3   5
HETATM    5  C   UNL     1      33.451  -8.705  -7.662  1.00  0.00     0.110 C 
BRANCH   5   6
HETATM    6  C   UNL     1      32.279  -9.198  -6.799  1.00  0.00     0.010 C 
BRANCH   6   7
HETATM    7  C   UNL     1      32.699 -10.391  -5.933  1.00  0.00     0.001 C 
BRANCH   7   8
HETATM    8  C   UNL     1      31.559 -11.410  -5.811  1.00  0.00     0.000 C 
BRANCH   8   9
HETATM    9  C   UNL     1      30.405 -10.848  -4.972  1.00  0.00     0.000 C 
BRANCH   9  10
HETATM   10  C   UNL     1      29.056 -11.097  -5.656  1.00  0.00     0.000 C 
BRANCH  10  11
HETATM   11  C   UNL     1      29.244 -11.817  -6.997  1.00  0.00     0.000 C 
BRANCH  11  12
HETATM   12  C   UNL     1      28.283 -11.267  -8.057  1.00  0.00     0.000 C 
BRANCH  12  13
HETATM   13  C   UNL     1      29.018 -10.978  -9.370  1.00  0.00     0.000 C 
BRANCH  13  14
HETATM   14  C   UNL     1      30.529 -11.187  -9.212  1.00  0.00     0.000 C 
BRANCH  14  15
HETATM   15  C   UNL     1      31.261 -10.943 -10.538  1.00  0.00     0.000 C 
BRANCH  15  16
HETATM   16  C   UNL     1      32.614 -11.664 -10.560  1.00  0.00     0.000 C 
BRANCH  16  17
HETATM   17  C   UNL     1      32.930 -12.283  -9.193  1.00  0.00    -0.000 C 
BRANCH  17  18
HETATM   18  C   UNL     1      34.442 -12.323  -8.944  1.00  0.00    -0.005 C 
HETATM   19  C   UNL     1      35.163 -11.252  -9.757  1.00  0.00     0.005 C 
ENDBRANCH  17  18
ENDBRANCH  16  17
ENDBRANCH  15  16
ENDBRANCH  14  15
ENDBRANCH  13  14
ENDBRANCH  12  13
ENDBRANCH  11  12
ENDBRANCH  10  11
ENDBRANCH   9  10
ENDBRANCH   8   9
ENDBRANCH   7   8
ENDBRANCH   6   7
ENDBRANCH   5   6
ENDBRANCH   3   5
ENDBRANCH   1   3
TORSDOF 15
ENDMDL
MODEL 8
REMARK VINA RESULT:      -4.3      1.954      4.042
REMARK  15 active torsions:
REMARK  status: ('A' for Active; 'I' for Inactive)
REMARK    1  A    between atoms: O_1  and  C_18 
REMARK    2  A    between atoms: C_3  and  C_4 
REMARK    3  A    between atoms: C_3  and  C_5 
REMARK    4  A    between atoms: C_4  and  C_6 
REMARK    5  A    between atoms: C_5  and  C_7 
REMARK    6  A    between atoms: C_6  and  C_8 
REMARK    7  A    between atoms: C_7  and  C_9 
REMARK    8  A    between atoms: C_8  and  C_10 
REMARK    9  A    between atoms: C_9  and  C_11 
REMARK   10  A    between atoms: C_10  and  C_12 
REMARK   11  A    between atoms: C_11  and  C_13 
REMARK   12  A    between atoms: C_12  and  C_14 
REMARK   13  A    between atoms: C_13  and  C_15 
REMARK   14  A    between atoms: C_14  and  C_16 
REMARK   15  A    between atoms: C_16  and  C_18 
ROOT
HETATM    1  O   UNL     1      34.100  -9.800  -7.910  1.00  0.00    -0.776 OA
HETATM    2  H   UNL     1      35.054  -9.776  -8.069  1.00  0.00     0.167 HD
ENDROOT
BRANCH   1   3
HETATM    3  C   UNL     1      33.476  -8.822  -7.220  1.00  0.00     0.139 C 
HETATM    4  O   UNL     1      34.017  -7.734  -7.084  1.00  0.00    -0.650 OA
BRANCH   3   5
HETATM    5  C   UNL     1      32.117  -9.097  -6.630  1.00  0.00     0.110 C 
BRANCH   5   6
HETATM    6  C   UNL     1      31.375 -10.243  -7.334  1.00  0.00     0.010 C 
BRANCH   6   7
HETATM    7  C   UNL     1      29.911 -10.309  -6.883  1.00  0.00     0.001 C 
BRANCH   7   8
HETATM    8  C   UNL     1      29.040 -10.995  -7.942  1.00  0.00     0.000 C 
BRANCH   8   9
HETATM    9  C   UNL     1      29.852 -11.313  -9.203  1.00  0.00     0.000 C 
BRANCH   9  10
HETATM   10  C   UNL     1      29.310 -10.546 -10.415  1.00  0.00     0.000 C 
BRANCH  10  11
HETATM   11  C   UNL     1      29.020 -11.496 -11.583  1.00  0.00     0.000 C 
BRANCH  11  12
HETATM   12  C   UNL     1      28.529 -10.724 -12.813  1.00  0.00     0.000 C 
BRANCH  12  13
HETATM   13  C   UNL     1      29.379 -11.052 -14.045  1.00  0.00     0.000 C 
BRANCH  13  14
HETATM   14  C   UNL     1      30.875 -10.911 -13.734  1.00  0.00     0.000 C 
BRANCH  14  15
HETATM   15  C   UNL     1      31.639 -10.359 -14.944  1.00  0.00     0.000 C 
BRANCH  15  16
HETATM   16  C   UNL     1      32.662  -9.302 -14.512  1.00  0.00     0.000 C 
BRANCH  16  17
HETATM   17  C   UNL     1      33.361  -9.713 -13.210  1.00  0.00    -0.000 C 
BRANCH  17  18
HETATM   18  C   UNL     1      33.314  -8.579 -12.179  1.00  0.00    -0.005 C 
HETATM   19  C   UNL     1      32.600  -9.023 -10.905  1.00  0.00     0.005 C 
ENDBRANCH  17  18
ENDBRANCH  16  17
ENDBRANCH  15  16
ENDBRANCH  14  15
ENDBRANCH  13  14
ENDBRANCH  12  13
ENDBRANCH  11  12
ENDBRANCH  10  11
ENDBRANCH   9  10
ENDBRANCH   8   9
ENDBRANCH   7   8
ENDBRANCH   6   7
ENDBRANCH   5   6
ENDBRANCH   3   5
ENDBRANCH   1   3
TORSDOF 15
ENDMDL
MODEL 9
REMARK VINA RESULT:      -4.3      2.751      4.142
REMARK  15 active torsions:
REMARK  status: ('A' for Active; 'I' for Inactive)
REMARK    1  A    between atoms: O_1  and  C_18 
REMARK    2  A    between atoms: C_3  and  C_4 
REMARK    3  A    between atoms: C_3  and  C_5 
REMARK    4  A    between atoms: C_4  and  C_6 
REMARK    5  A    between atoms: C_5  and  C_7 
REMARK    6  A    between atoms: C_6  and  C_8 
REMARK    7  A    between atoms: C_7  and  C_9 
REMARK    8  A    between atoms: C_8  and  C_10 
REMARK    9  A    between atoms: C_9  and  C_11 
REMARK   10  A    between atoms: C_10  and  C_12 
REMARK   11  A    between atoms: C_11  and  C_13 
REMARK   12  A    between atoms: C_12  and  C_14 
REMARK   13  A    between atoms: C_13  and  C_15 
REMARK   14  A    between atoms: C_14  and  C_16 
REMARK   15  A    between atoms: C_16  and  C_18 
ROOT
HETATM    1  O   UNL     1      35.539  -6.286 -12.458  1.00  0.00    -0.776 OA
HETATM    2  H   UNL     1      36.026  -6.882 -13.044  1.00  0.00     0.167 HD
ENDROOT
BRANCH   1   3
HETATM    3  C   UNL     1      34.351  -6.639 -11.923  1.00  0.00     0.139 C 
HETATM    4  O   UNL     1      33.800  -5.897 -11.123  1.00  0.00    -0.650 OA
BRANCH   3   5
HETATM    5  C   UNL     1      33.728  -7.950 -12.329  1.00  0.00     0.110 C 
BRANCH   5   6
HETATM    6  C   UNL     1      32.738  -8.496 -11.288  1.00  0.00     0.010 C 
BRANCH   6   7
HETATM    7  C   UNL     1      33.428  -9.483 -10.339  1.00  0.00     0.001 C 
BRANCH   7   8
HETATM    8  C   UNL     1      32.804  -9.427  -8.939  1.00  0.00     0.000 C 
BRANCH   8   9
HETATM    9  C   UNL     1      32.766 -10.819  -8.297  1.00  0.00     0.000 C 
BRANCH   9  10
HETATM   10  C   UNL     1      31.512 -11.589  -8.727  1.00  0.00     0.000 C 
BRANCH  10  11
HETATM   11  C   UNL     1      30.252 -10.734  -8.544  1.00  0.00     0.000 C 
BRANCH  11  12
HETATM   12  C   UNL     1      29.202 -11.066  -9.610  1.00  0.00     0.000 C 
BRANCH  12  13
HETATM   13  C   UNL     1      29.519 -10.363 -10.934  1.00  0.00     0.000 C 
BRANCH  13  14
HETATM   14  C   UNL     1      29.858 -11.381 -12.030  1.00  0.00     0.000 C 
BRANCH  14  15
HETATM   15  C   UNL     1      30.636 -10.720 -13.175  1.00  0.00     0.000 C 
BRANCH  15  16
HETATM   16  C   UNL     1      31.575 -11.724 -13.853  1.00  0.00     0.000 C 
BRANCH  16  17
HETATM   17  C   UNL     1      32.873 -11.891 -13.054  1.00  0.00    -0.000 C 
BRANCH  17  18
HETATM   18  C   UNL     1      33.021 -13.328 -12.540  1.00  0.00    -0.005 C 
HETATM   19  C   UNL     1      33.613 -13.351 -11.133  1.00  0.00     0.005 C 
ENDBRANCH  17  18
ENDBRANCH  16  17
ENDBRANCH  15  16
ENDBRANCH  14  15
ENDBRANCH  13  14
ENDBRANCH  12  13
ENDBRANCH  11  12
ENDBRANCH  10  11
ENDBRANCH   9  10
ENDBRANCH   8   9
ENDBRANCH   7   8
ENDBRANCH   6   7
ENDBRANCH   5   6
ENDBRANCH   3   5
ENDBRANCH   1   3
TORSDOF 15
ENDMDL
MODEL 10
REMARK VINA RESULT:      -4.3      6.194      8.453
REMARK  15 active torsions:
REMARK  status: ('A' for Active; 'I' for Inactive)
REMARK    1  A    between atoms: O_1  and  C_18 
REMARK    2  A    between atoms: C_3  and  C_4 
REMARK    3  A    between atoms: C_3  and  C_5 
REMARK    4  A    between atoms: C_4  and  C_6 
REMARK    5  A    between atoms: C_5  and  C_7 
REMARK    6  A    between atoms: C_6  and  C_8 
REMARK    7  A    between atoms: C_7  and  C_9 
REMARK    8  A    between atoms: C_8  and  C_10 
REMARK    9  A    between atoms: C_9  and  C_11 
REMARK   10  A    between atoms: C_10  and  C_12 
REMARK   11  A    between atoms: C_11  and  C_13 
REMARK   12  A    between atoms: C_12  and  C_14 
REMARK   13  A    between atoms: C_13  and  C_15 
REMARK   14  A    between atoms: C_14  and  C_16 
REMARK   15  A    between atoms: C_16  and  C_18 
ROOT
HETATM    1  O   UNL     1      35.568  -5.963 -17.386  1.00  0.00    -0.776 OA
HETATM    2  H   UNL     1      35.655  -5.327 -18.110  1.00  0.00     0.167 HD
ENDROOT
BRANCH   1   3
HETATM    3  C   UNL     1      34.581  -5.858 -16.472  1.00  0.00     0.139 C 
HETATM    4  O   UNL     1      34.420  -4.806 -15.869  1.00  0.00    -0.650 OA
BRANCH   3   5
HETATM    5  C   UNL     1      33.693  -7.048 -16.215  1.00  0.00     0.110 C 
BRANCH   5   6
HETATM    6  C   UNL     1      33.926  -8.199 -17.206  1.00  0.00     0.010 C 
BRANCH   6   7
HETATM    7  C   UNL     1      32.657  -9.041 -17.377  1.00  0.00     0.001 C 
BRANCH   7   8
HETATM    8  C   UNL     1      31.916  -9.196 -16.044  1.00  0.00     0.000 C 
BRANCH   8   9
HETATM    9  C   UNL     1      30.467  -9.647 -16.268  1.00  0.00     0.000 C 
BRANCH   9  10
HETATM   10  C   UNL     1      30.246 -11.069 -15.741  1.00  0.00     0.000 C 
BRANCH  10  11
HETATM   11  C   UNL     1      29.235 -11.077 -14.587  1.00  0.00     0.000 C 
BRANCH  11  12
HETATM   12  C   UNL     1      29.938 -11.286 -13.241  1.00  0.00     0.000 C 
BRANCH  12  13
HETATM   13  C   UNL     1      31.412 -11.653 -13.440  1.00  0.00     0.000 C 
BRANCH  13  14
HETATM   14  C   UNL     1      31.856 -12.716 -12.427  1.00  0.00     0.000 C 
BRANCH  14  15
HETATM   15  C   UNL     1      33.299 -13.162 -12.694  1.00  0.00     0.000 C 
BRANCH  15  16
HETATM   16  C   UNL     1      33.577 -13.254 -14.198  1.00  0.00     0.000 C 
BRANCH  16  17
HETATM   17  C   UNL     1      34.655 -12.250 -14.621  1.00  0.00    -0.000 C 
BRANCH  17  18
HETATM   18  C   UNL     1      34.599 -11.985 -16.130  1.00  0.00    -0.005 C 
HETATM   19  C   UNL     1      33.382 -12.656 -16.762  1.00  0.00     0.005 C 
ENDBRANCH  17  18
ENDBRANCH  16  17
ENDBRANCH  15  16
ENDBRANCH  14  15
ENDBRANCH  13  14
ENDBRANCH  12  13
ENDBRANCH  11  12
ENDBRANCH  10  11
ENDBRANCH   9  10
ENDBRANCH   8   9
ENDBRANCH   7   8
ENDBRANCH   6   7
ENDBRANCH   5   6
ENDBRANCH   3   5
ENDBRANCH   1   3
TORSDOF 15
ENDMDL
MODEL 11
REMARK VINA RESULT:      -4.3      5.276      7.291
REMARK  15 active torsions:
REMARK  status: ('A' for Active; 'I' for Inactive)
REMARK    1  A    between atoms: O_1  and  C_18 
REMARK    2  A    between atoms: C_3  and  C_4 
REMARK    3  A    between atoms: C_3  and  C_5 
REMARK    4  A    between atoms: C_4  and  C_6 
REMARK    5  A    between atoms: C_5  and  C_7 
REMARK    6  A    between atoms: C_6  and  C_8 
REMARK    7  A    between atoms: C_7  and  C_9 
REMARK    8  A    between atoms: C_8  and  C_10 
REMARK    9  A    between atoms: C_9  and  C_11 
REMARK   10  A    between atoms: C_10  and  C_12 
REMARK   11  A    between atoms: C_11  and  C_13 
REMARK   12  A    between atoms: C_12  and  C_14 
REMARK   13  A    between atoms: C_13  and  C_15 
REMARK   14  A    between atoms: C_14  and  C_16 
REMARK   15  A    between atoms: C_16  and  C_18 
ROOT
HETATM    1  O   UNL     1      34.930  -6.797 -17.801  1.00  0.00    -0.776 OA
HETATM    2  H   UNL     1      34.882  -6.451 -18.703  1.00  0.00     0.167 HD
ENDROOT
BRANCH   1   3
HETATM    3  C   UNL     1      34.408  -6.119 -16.757  1.00  0.00     0.139 C 
HETATM    4  O   UNL     1      34.630  -4.922 -16.639  1.00  0.00    -0.650 OA
BRANCH   3   5
HETATM    5  C   UNL     1      33.556  -6.858 -15.758  1.00  0.00     0.110 C 
BRANCH   5   6
HETATM    6  C   UNL     1      33.678  -8.385 -15.875  1.00  0.00     0.010 C 
BRANCH   6   7
HETATM    7  C   UNL     1      32.952  -9.084 -14.720  1.00  0.00     0.001 C 
BRANCH   7   8
HETATM    8  C   UNL     1      33.898  -9.315 -13.535  1.00  0.00     0.000 C 
BRANCH   8   9
HETATM    9  C   UNL     1      33.360  -8.647 -12.263  1.00  0.00     0.000 C 
BRANCH   9  10
HETATM   10  C   UNL     1      32.103  -9.362 -11.756  1.00  0.00     0.000 C 
BRANCH  10  11
HETATM   11  C   UNL     1      32.470 -10.600 -10.929  1.00  0.00     0.000 C 
BRANCH  11  12
HETATM   12  C   UNL     1      31.751 -11.848 -11.455  1.00  0.00     0.000 C 
BRANCH  12  13
HETATM   13  C   UNL     1      30.995 -11.542 -12.753  1.00  0.00     0.000 C 
BRANCH  13  14
HETATM   14  C   UNL     1      29.483 -11.713 -12.562  1.00  0.00     0.000 C 
BRANCH  14  15
HETATM   15  C   UNL     1      28.702 -10.943 -13.634  1.00  0.00     0.000 C 
BRANCH  15  16
HETATM   16  C   UNL     1      29.549 -10.746 -14.896  1.00  0.00     0.000 C 
BRANCH  16  17
HETATM   17  C   UNL     1      28.880 -11.394 -16.115  1.00  0.00    -0.000 C 
BRANCH  17  18
HETATM   18  C   UNL     1      29.901 -11.658 -17.227  1.00  0.00    -0.005 C 
HETATM   19  C   UNL     1      31.316 -11.759 -16.663  1.00  0.00     0.005 C 
ENDBRANCH  17  18
ENDBRANCH  16  17
ENDBRANCH  15  16
ENDBRANCH  14  15
ENDBRANCH  13  14
ENDBRANCH  12  13
ENDBRANCH  11  12
ENDBRANCH  10  11
ENDBRANCH   9  10
ENDBRANCH   8   9
ENDBRANCH   7   8
ENDBRANCH   6   7
ENDBRANCH   5   6
ENDBRANCH   3   5
ENDBRANCH   1   3
TORSDOF 15
ENDMDL
MODEL 12
REMARK VINA RESULT:      -4.3      2.882      6.827
REMARK  15 active torsions:
REMARK  status: ('A' for Active; 'I' for Inactive)
REMARK    1  A    between atoms: O_1  and  C_18 
REMARK    2  A    between atoms: C_3  and  C_4 
REMARK    3  A    between atoms: C_3  and  C_5 
REMARK    4  A    between atoms: C_4  and  C_6 
REMARK    5  A    between atoms: C_5  and  C_7 
REMARK    6  A    between atoms: C_6  and  C_8 
REMARK    7  A    between atoms: C_7  and  C_9 
REMARK    8  A    between atoms: C_8  and  C_10 
REMARK    9  A    between atoms: C_9  and  C_11 
REMARK   10  A    between atoms: C_10  and  C_12 
REMARK   11  A    between atoms: C_11  and  C_13 
REMARK   12  A    between atoms: C_12  and  C_14 
REMARK   13  A    between atoms: C_13  and  C_15 
REMARK   14  A    between atoms: C_14  and  C_16 
REMARK   15  A    between atoms: C_16  and  C_18 
ROOT
HETATM    1  O   UNL     1      34.136  -7.501 -11.022  1.00  0.00    -0.776 OA
HETATM    2  H   UNL     1      33.852  -6.576 -11.027  1.00  0.00     0.167 HD
ENDROOT
BRANCH   1   3
HETATM    3  C   UNL     1      33.246  -8.511 -11.126  1.00  0.00     0.139 C 
HETATM    4  O   UNL     1      32.831  -9.060 -10.116  1.00  0.00    -0.650 OA
BRANCH   3   5
HETATM    5  C   UNL     1      32.783  -8.939 -12.495  1.00  0.00     0.110 C 
BRANCH   5   6
HETATM    6  C   UNL     1      33.860  -9.698 -13.286  1.00  0.00     0.010 C 
BRANCH   6   7
HETATM    7  C   UNL     1      33.837  -9.301 -14.766  1.00  0.00     0.001 C 
BRANCH   7   8
HETATM    8  C   UNL     1      32.398  -9.124 -15.266  1.00  0.00     0.000 C 
BRANCH   8   9
HETATM    9  C   UNL     1      32.221  -9.735 -16.661  1.00  0.00     0.000 C 
BRANCH   9  10
HETATM   10  C   UNL     1      30.953 -10.595 -16.728  1.00  0.00     0.000 C 
BRANCH  10  11
HETATM   11  C   UNL     1      30.646 -11.229 -15.367  1.00  0.00     0.000 C 
BRANCH  11  12
HETATM   12  C   UNL     1      29.344 -10.672 -14.780  1.00  0.00     0.000 C 
BRANCH  12  13
HETATM   13  C   UNL     1      29.123 -11.179 -13.350  1.00  0.00     0.000 C 
BRANCH  13  14
HETATM   14  C   UNL     1      30.408 -11.789 -12.778  1.00  0.00     0.000 C 
BRANCH  14  15
HETATM   15  C   UNL     1      30.489 -11.580 -11.261  1.00  0.00     0.000 C 
BRANCH  15  16
HETATM   16  C   UNL     1      29.124 -11.180 -10.688  1.00  0.00     0.000 C 
BRANCH  16  17
HETATM   17  C   UNL     1      29.281 -10.477  -9.334  1.00  0.00    -0.000 C 
BRANCH  17  18
HETATM   18  C   UNL     1      28.991 -11.440  -8.177  1.00  0.00    -0.005 C 
HETATM   19  C   UNL     1      30.202 -11.577  -7.257  1.00  0.00     0.005 C 
ENDBRANCH  17  18
ENDBRANCH  16  17
ENDBRANCH  15  16
ENDBRANCH  14  15
ENDBRANCH  13  14
ENDBRANCH  12  13
ENDBRANCH  11  12
ENDBRANCH  10  11
ENDBRANCH   9  10
ENDBRANCH   8   9
ENDBRANCH   7   8
ENDBRANCH   6   7
ENDBRANCH   5   6
ENDBRANCH   3   5
ENDBRANCH   1   3
TORSDOF 15
ENDMDL
MODEL 13
REMARK VINA RESULT:      -4.3     15.673     18.288
REMARK  15 active torsions:
REMARK  status: ('A' for Active; 'I' for Inactive)
REMARK    1  A    between atoms: O_1  and  C_18 
REMARK    2  A    between atoms: C_3  and  C_4 
REMARK    3  A    between atoms: C_3  and  C_5 
REMARK    4  A    between atoms: C_4  and  C_6 
REMARK    5  A    between atoms: C_5  and  C_7 
REMARK    6  A    between atoms: C_6  and  C_8 
REMARK    7  A    between atoms: C_7  and  C_9 
REMARK    8  A    between atoms: C_8  and  C_10 
REMARK    9  A    between atoms: C_9  and  C_11 
REMARK   10  A    between atoms: C_10  and  C_12 
REMARK   11  A    between atoms: C_11  and  C_13 
REMARK   12  A    between atoms: C_12  and  C_14 
REMARK   13  A    between atoms: C_13  and  C_15 
REMARK   14  A    between atoms: C_14  and  C_16 
REMARK   15  A    between atoms: C_16  and  C_18 
ROOT
HETATM    1  O   UNL     1      46.845  -5.900  -2.893  1.00  0.00    -0.776 OA
HETATM    2  H   UNL     1      46.950  -5.584  -1.985  1.00  0.00     0.167 HD
ENDROOT
BRANCH   1   3
HETATM    3  C   UNL     1      47.887  -5.933  -3.751  1.00  0.00     0.139 C 
HETATM    4  O   UNL     1      49.026  -6.039  -3.319  1.00  0.00    -0.650 OA
BRANCH   3   5
HETATM    5  C   UNL     1      47.619  -5.840  -5.231  1.00  0.00     0.110 C 
BRANCH   5   6
HETATM    6  C   UNL     1      47.084  -4.466  -5.661  1.00  0.00     0.010 C 
BRANCH   6   7
HETATM    7  C   UNL     1      45.699  -4.592  -6.306  1.00  0.00     0.001 C 
BRANCH   7   8
HETATM    8  C   UNL     1      44.601  -4.115  -5.348  1.00  0.00     0.000 C 
BRANCH   8   9
HETATM    9  C   UNL     1      44.254  -2.643  -5.598  1.00  0.00     0.000 C 
BRANCH   9  10
HETATM   10  C   UNL     1      44.289  -1.840  -4.292  1.00  0.00     0.000 C 
BRANCH  10  11
HETATM   11  C   UNL     1      45.313  -2.428  -3.313  1.00  0.00     0.000 C 
BRANCH  11  12
HETATM   12  C   UNL     1      46.651  -1.685  -3.404  1.00  0.00     0.000 C 
BRANCH  12  13
HETATM   13  C   UNL     1      47.010  -1.031  -2.065  1.00  0.00     0.000 C 
BRANCH  13  14
HETATM   14  C   UNL     1      46.670   0.465  -2.075  1.00  0.00     0.000 C 
BRANCH  14  15
HETATM   15  C   UNL     1      45.785   0.836  -0.879  1.00  0.00     0.000 C 
BRANCH  15  16
HETATM   16  C   UNL     1      44.322   0.459  -1.139  1.00  0.00     0.000 C 
BRANCH  16  17
HETATM   17  C   UNL     1      43.733  -0.312   0.048  1.00  0.00    -0.000 C 
BRANCH  17  18
HETATM   18  C   UNL     1      43.701  -1.818  -0.236  1.00  0.00    -0.005 C 
HETATM   19  C   UNL     1      44.763  -2.555   0.576  1.00  0.00     0.005 C 
ENDBRANCH  17  18
ENDBRANCH  16  17
ENDBRANCH  15  16
ENDBRANCH  14  15
ENDBRANCH  13  14
ENDBRANCH  12  13
ENDBRANCH  11  12
ENDBRANCH  10  11
ENDBRANCH   9  10
ENDBRANCH   8   9
ENDBRANCH   7   8
ENDBRANCH   6   7
ENDBRANCH   5   6
ENDBRANCH   3   5
ENDBRANCH   1   3
TORSDOF 15
ENDMDL
MODEL 14
REMARK VINA RESULT:      -4.2      3.881      7.377
REMARK  15 active torsions:
REMARK  status: ('A' for Active; 'I' for Inactive)
REMARK    1  A    between atoms: O_1  and  C_18 
REMARK    2  A    between atoms: C_3  and  C_4 
REMARK    3  A    between atoms: C_3  and  C_5 
REMARK    4  A    between atoms: C_4  and  C_6 
REMARK    5  A    between atoms: C_5  and  C_7 
REMARK    6  A    between atoms: C_6  and  C_8 
REMARK    7  A    between atoms: C_7  and  C_9 
REMARK    8  A    between atoms: C_8  and  C_10 
REMARK    9  A    between atoms: C_9  and  C_11 
REMARK   10  A    between atoms: C_10  and  C_12 
REMARK   11  A    between atoms: C_11  and  C_13 
REMARK   12  A    between atoms: C_12  and  C_14 
REMARK   13  A    between atoms: C_13  and  C_15 
REMARK   14  A    between atoms: C_14  and  C_16 
REMARK   15  A    between atoms: C_16  and  C_18 
ROOT
HETATM    1  O   UNL     1      34.197  -9.920 -17.155  1.00  0.00    -0.776 OA
HETATM    2  H   UNL     1      35.019 -10.302 -16.818  1.00  0.00     0.167 HD
ENDROOT
BRANCH   1   3
HETATM    3  C   UNL     1      33.624  -8.850 -16.563  1.00  0.00     0.139 C 
HETATM    4  O   UNL     1      34.018  -7.724 -16.831  1.00  0.00    -0.650 OA
BRANCH   3   5
HETATM    5  C   UNL     1      32.504  -9.072 -15.580  1.00  0.00     0.110 C 
BRANCH   5   6
HETATM    6  C   UNL     1      31.208  -9.563 -16.244  1.00  0.00     0.010 C 
BRANCH   6   7
HETATM    7  C   UNL     1      30.908 -11.015 -15.856  1.00  0.00     0.001 C 
BRANCH   7   8
HETATM    8  C   UNL     1      30.394 -11.105 -14.414  1.00  0.00     0.000 C 
BRANCH   8   9
HETATM    9  C   UNL     1      28.864 -11.192 -14.379  1.00  0.00     0.000 C 
BRANCH   9  10
HETATM   10  C   UNL     1      28.328 -10.890 -12.975  1.00  0.00     0.000 C 
BRANCH  10  11
HETATM   11  C   UNL     1      29.297 -11.390 -11.897  1.00  0.00     0.000 C 
BRANCH  11  12
HETATM   12  C   UNL     1      29.677 -10.262 -10.931  1.00  0.00     0.000 C 
BRANCH  12  13
HETATM   13  C   UNL     1      31.196 -10.063 -10.888  1.00  0.00     0.000 C 
BRANCH  13  14
HETATM   14  C   UNL     1      31.818 -10.829  -9.714  1.00  0.00     0.000 C 
BRANCH  14  15
HETATM   15  C   UNL     1      32.069  -9.899  -8.521  1.00  0.00     0.000 C 
BRANCH  15  16
HETATM   16  C   UNL     1      31.764 -10.608  -7.196  1.00  0.00     0.000 C 
BRANCH  16  17
HETATM   17  C   UNL     1      30.274 -10.503  -6.847  1.00  0.00    -0.000 C 
BRANCH  17  18
HETATM   18  C   UNL     1      29.473 -11.630  -7.508  1.00  0.00    -0.005 C 
HETATM   19  C   UNL     1      28.006 -11.243  -7.667  1.00  0.00     0.005 C 
ENDBRANCH  17  18
ENDBRANCH  16  17
ENDBRANCH  15  16
ENDBRANCH  14  15
ENDBRANCH  13  14
ENDBRANCH  12  13
ENDBRANCH  11  12
ENDBRANCH  10  11
ENDBRANCH   9  10
ENDBRANCH   8   9
ENDBRANCH   7   8
ENDBRANCH   6   7
ENDBRANCH   5   6
ENDBRANCH   3   5
ENDBRANCH   1   3
TORSDOF 15
ENDMDL
MODEL 15
REMARK VINA RESULT:      -4.2      3.093      4.588
REMARK  15 active torsions:
REMARK  status: ('A' for Active; 'I' for Inactive)
REMARK    1  A    between atoms: O_1  and  C_18 
REMARK    2  A    between atoms: C_3  and  C_4 
REMARK    3  A    between atoms: C_3  and  C_5 
REMARK    4  A    between atoms: C_4  and  C_6 
REMARK    5  A    between atoms: C_5  and  C_7 
REMARK    6  A    between atoms: C_6  and  C_8 
REMARK    7  A    between atoms: C_7  and  C_9 
REMARK    8  A    between atoms: C_8  and  C_10 
REMARK    9  A    between atoms: C_9  and  C_11 
REMARK   10  A    between atoms: C_10  and  C_12 
REMARK   11  A    between atoms: C_11  and  C_13 
REMARK   12  A    between atoms: C_12  and  C_14 
REMARK   13  A    between atoms: C_13  and  C_15 
REMARK   14  A    between atoms: C_14  and  C_16 
REMARK   15  A    between atoms: C_16  and  C_18 
ROOT
HETATM    1  O   UNL     1      35.647  -6.218 -12.378  1.00  0.00    -0.776 OA
HETATM    2  H   UNL     1      36.159  -6.853 -12.897  1.00  0.00     0.167 HD
ENDROOT
BRANCH   1   3
HETATM    3  C   UNL     1      34.399  -6.502 -11.951  1.00  0.00     0.139 C 
HETATM    4  O   UNL     1      33.805  -5.704 -11.239  1.00  0.00    -0.650 OA
BRANCH   3   5
HETATM    5  C   UNL     1      33.763  -7.803 -12.365  1.00  0.00     0.110 C 
BRANCH   5   6
HETATM    6  C   UNL     1      32.816  -8.378 -11.300  1.00  0.00     0.010 C 
BRANCH   6   7
HETATM    7  C   UNL     1      33.591  -9.192 -10.259  1.00  0.00     0.001 C 
BRANCH   7   8
HETATM    8  C   UNL     1      32.775  -9.355  -8.970  1.00  0.00     0.000 C 
BRANCH   8   9
HETATM    9  C   UNL     1      32.732 -10.823  -8.527  1.00  0.00     0.000 C 
BRANCH   9  10
HETATM   10  C   UNL     1      31.733 -11.622  -9.372  1.00  0.00     0.000 C 
BRANCH  10  11
HETATM   11  C   UNL     1      30.391 -10.888  -9.479  1.00  0.00     0.000 C 
BRANCH  11  12
HETATM   12  C   UNL     1      29.636 -11.302 -10.748  1.00  0.00     0.000 C 
BRANCH  12  13
HETATM   13  C   UNL     1      29.580 -10.149 -11.756  1.00  0.00     0.000 C 
BRANCH  13  14
HETATM   14  C   UNL     1      30.209 -10.557 -13.094  1.00  0.00     0.000 C 
BRANCH  14  15
HETATM   15  C   UNL     1      29.137 -11.019 -14.088  1.00  0.00     0.000 C 
BRANCH  15  16
HETATM   16  C   UNL     1      29.738 -11.248 -15.479  1.00  0.00     0.000 C 
BRANCH  16  17
HETATM   17  C   UNL     1      30.117  -9.917 -16.141  1.00  0.00    -0.000 C 
BRANCH  17  18
HETATM   18  C   UNL     1      31.585  -9.920 -16.582  1.00  0.00    -0.005 C 
HETATM   19  C   UNL     1      32.276  -8.613 -16.205  1.00  0.00     0.005 C 
ENDBRANCH  17  18
ENDBRANCH  16  17
ENDBRANCH  15  16
ENDBRANCH  14  15
ENDBRANCH  13  14
ENDBRANCH  12  13
ENDBRANCH  11  12
ENDBRANCH  10  11
ENDBRANCH   9  10
ENDBRANCH   8   9
ENDBRANCH   7   8
ENDBRANCH   6   7
ENDBRANCH   5   6
ENDBRANCH   3   5
ENDBRANCH   1   3
TORSDOF 15
ENDMDL
MODEL 16
REMARK VINA RESULT:      -4.2      3.463      6.725
REMARK  15 active torsions:
REMARK  status: ('A' for Active; 'I' for Inactive)
REMARK    1  A    between atoms: O_1  and  C_18 
REMARK    2  A    between atoms: C_3  and  C_4 
REMARK    3  A    between atoms: C_3  and  C_5 
REMARK    4  A    between atoms: C_4  and  C_6 
REMARK    5  A    between atoms: C_5  and  C_7 
REMARK    6  A    between atoms: C_6  and  C_8 
REMARK    7  A    between atoms: C_7  and  C_9 
REMARK    8  A    between atoms: C_8  and  C_10 
REMARK    9  A    between atoms: C_9  and  C_11 
REMARK   10  A    between atoms: C_10  and  C_12 
REMARK   11  A    between atoms: C_11  and  C_13 
REMARK   12  A    between atoms: C_12  and  C_14 
REMARK   13  A    between atoms: C_13  and  C_15 
REMARK   14  A    between atoms: C_14  and  C_16 
REMARK   15  A    between atoms: C_16  and  C_18 
ROOT
HETATM    1  O   UNL     1      30.445 -11.100 -14.223  1.00  0.00    -0.776 OA
HETATM    2  H   UNL     1      30.883 -10.712 -14.993  1.00  0.00     0.167 HD
ENDROOT
BRANCH   1   3
HETATM    3  C   UNL     1      29.101 -11.210 -14.159  1.00  0.00     0.139 C 
HETATM    4  O   UNL     1      28.462 -11.452 -15.173  1.00  0.00    -0.650 OA
BRANCH   3   5
HETATM    5  C   UNL     1      28.416 -11.032 -12.828  1.00  0.00     0.110 C 
BRANCH   5   6
HETATM    6  C   UNL     1      29.186 -10.107 -11.873  1.00  0.00     0.010 C 
BRANCH   6   7
HETATM    7  C   UNL     1      29.491 -10.816 -10.549  1.00  0.00     0.001 C 
BRANCH   7   8
HETATM    8  C   UNL     1      30.968 -11.222 -10.470  1.00  0.00     0.000 C 
BRANCH   8   9
HETATM    9  C   UNL     1      31.860 -10.199 -11.184  1.00  0.00     0.000 C 
BRANCH   9  10
HETATM   10  C   UNL     1      32.469  -9.209 -10.186  1.00  0.00     0.000 C 
BRANCH  10  11
HETATM   11  C   UNL     1      32.400  -9.757  -8.755  1.00  0.00     0.000 C 
BRANCH  11  12
HETATM   12  C   UNL     1      33.257  -8.917  -7.801  1.00  0.00     0.000 C 
BRANCH  12  13
HETATM   13  C   UNL     1      32.486  -8.583  -6.519  1.00  0.00     0.000 C 
BRANCH  13  14
HETATM   14  C   UNL     1      33.106  -9.285  -5.305  1.00  0.00     0.000 C 
BRANCH  14  15
HETATM   15  C   UNL     1      32.029  -9.969  -4.454  1.00  0.00     0.000 C 
BRANCH  15  16
HETATM   16  C   UNL     1      31.381 -11.130  -5.217  1.00  0.00     0.000 C 
BRANCH  16  17
HETATM   17  C   UNL     1      29.990 -10.741  -5.733  1.00  0.00    -0.000 C 
BRANCH  17  18
HETATM   18  C   UNL     1      29.569 -11.635  -6.906  1.00  0.00    -0.005 C 
HETATM   19  C   UNL     1      28.130 -11.349  -7.327  1.00  0.00     0.005 C 
ENDBRANCH  17  18
ENDBRANCH  16  17
ENDBRANCH  15  16
ENDBRANCH  14  15
ENDBRANCH  13  14
ENDBRANCH  12  13
ENDBRANCH  11  12
ENDBRANCH  10  11
ENDBRANCH   9  10
ENDBRANCH   8   9
ENDBRANCH   7   8
ENDBRANCH   6   7
ENDBRANCH   5   6
ENDBRANCH   3   5
ENDBRANCH   1   3
TORSDOF 15
ENDMDL
MODEL 17
REMARK VINA RESULT:      -4.2     19.131     21.507
REMARK  15 active torsions:
REMARK  status: ('A' for Active; 'I' for Inactive)
REMARK    1  A    between atoms: O_1  and  C_18 
REMARK    2  A    between atoms: C_3  and  C_4 
REMARK    3  A    between atoms: C_3  and  C_5 
REMARK    4  A    between atoms: C_4  and  C_6 
REMARK    5  A    between atoms: C_5  and  C_7 
REMARK    6  A    between atoms: C_6  and  C_8 
REMARK    7  A    between atoms: C_7  and  C_9 
REMARK    8  A    between atoms: C_8  and  C_10 
REMARK    9  A    between atoms: C_9  and  C_11 
REMARK   10  A    between atoms: C_10  and  C_12 
REMARK   11  A    between atoms: C_11  and  C_13 
REMARK   12  A    between atoms: C_12  and  C_14 
REMARK   13  A    between atoms: C_13  and  C_15 
REMARK   14  A    between atoms: C_14  and  C_16 
REMARK   15  A    between atoms: C_16  and  C_18 
ROOT
HETATM    1  O   UNL     1      40.533   5.304  -8.728  1.00  0.00    -0.776 OA
HETATM    2  H   UNL     1      41.285   4.709  -8.852  1.00  0.00     0.167 HD
ENDROOT
BRANCH   1   3
HETATM    3  C   UNL     1      40.404   6.436  -9.453  1.00  0.00     0.139 C 
HETATM    4  O   UNL     1      39.979   7.452  -8.922  1.00  0.00    -0.650 OA
BRANCH   3   5
HETATM    5  C   UNL     1      40.790   6.418 -10.909  1.00  0.00     0.110 C 
BRANCH   5   6
HETATM    6  C   UNL     1      39.581   6.483 -11.855  1.00  0.00     0.010 C 
BRANCH   6   7
HETATM    7  C   UNL     1      39.418   7.889 -12.442  1.00  0.00     0.001 C 
BRANCH   7   8
HETATM    8  C   UNL     1      40.749   8.413 -12.996  1.00  0.00     0.000 C 
BRANCH   8   9
HETATM    9  C   UNL     1      40.619   8.791 -14.476  1.00  0.00     0.000 C 
BRANCH   9  10
HETATM   10  C   UNL     1      39.663   7.840 -15.205  1.00  0.00     0.000 C 
BRANCH  10  11
HETATM   11  C   UNL     1      40.426   6.672 -15.841  1.00  0.00     0.000 C 
BRANCH  11  12
HETATM   12  C   UNL     1      39.689   6.137 -17.074  1.00  0.00     0.000 C 
BRANCH  12  13
HETATM   13  C   UNL     1      40.562   6.248 -18.329  1.00  0.00     0.000 C 
BRANCH  13  14
HETATM   14  C   UNL     1      41.835   7.054 -18.043  1.00  0.00     0.000 C 
BRANCH  14  15
HETATM   15  C   UNL     1      42.036   8.156 -19.091  1.00  0.00     0.000 C 
BRANCH  15  16
HETATM   16  C   UNL     1      41.216   7.870 -20.354  1.00  0.00     0.000 C 
BRANCH  16  17
HETATM   17  C   UNL     1      42.127   7.481 -21.525  1.00  0.00    -0.000 C 
BRANCH  17  18
HETATM   18  C   UNL     1      41.467   6.412 -22.403  1.00  0.00    -0.005 C 
HETATM   19  C   UNL     1      40.508   7.041 -23.410  1.00  0.00     0.005 C 
ENDBRANCH  17  18
ENDBRANCH  16  17
ENDBRANCH  15  16
ENDBRANCH  14  15
ENDBRANCH  13  14
ENDBRANCH  12  13
ENDBRANCH  11  12
ENDBRANCH  10  11
ENDBRANCH   9  10
ENDBRANCH   8   9
ENDBRANCH   7   8
ENDBRANCH   6   7
ENDBRANCH   5   6
ENDBRANCH   3   5
ENDBRANCH   1   3
TORSDOF 15
ENDMDL
MODEL 18
REMARK VINA RESULT:      -4.2      3.679      6.992
REMARK  15 active torsions:
REMARK  status: ('A' for Active; 'I' for Inactive)
REMARK    1  A    between atoms: O_1  and  C_18 
REMARK    2  A    between atoms: C_3  and  C_4 
REMARK    3  A    between atoms: C_3  and  C_5 
REMARK    4  A    between atoms: C_4  and  C_6 
REMARK    5  A    between atoms: C_5  and  C_7 
REMARK    6  A    between atoms: C_6  and  C_8 
REMARK    7  A    between atoms: C_7  and  C_9 
REMARK    8  A    between atoms: C_8  and  C_10 
REMARK    9  A    between atoms: C_9  and  C_11 
REMARK   10  A    between atoms: C_10  and  C_12 
REMARK   11  A    between atoms: C_11  and  C_13 
REMARK   12  A    between atoms: C_12  and  C_14 
REMARK   13  A    between atoms: C_13  and  C_15 
REMARK   14  A    between atoms: C_14  and  C_16 
REMARK   15  A    between atoms: C_16  and  C_18 
ROOT
HETATM    1  O   UNL     1      28.759 -10.500 -14.167  1.00  0.00    -0.776 OA
HETATM    2  H   UNL     1      28.071 -10.111 -14.724  1.00  0.00     0.167 HD
ENDROOT
BRANCH   1   3
HETATM    3  C   UNL     1      28.485 -10.963 -12.928  1.00  0.00     0.139 C 
HETATM    4  O   UNL     1      27.351 -11.329 -12.655  1.00  0.00    -0.650 OA
BRANCH   3   5
HETATM    5  C   UNL     1      29.592 -11.017 -11.907  1.00  0.00     0.110 C 
BRANCH   5   6
HETATM    6  C   UNL     1      30.718 -11.990 -12.290  1.00  0.00     0.010 C 
BRANCH   6   7
HETATM    7  C   UNL     1      31.902 -11.242 -12.912  1.00  0.00     0.001 C 
BRANCH   7   8
HETATM    8  C   UNL     1      31.932  -9.779 -12.452  1.00  0.00     0.000 C 
BRANCH   8   9
HETATM    9  C   UNL     1      33.359  -9.339 -12.106  1.00  0.00     0.000 C 
BRANCH   9  10
HETATM   10  C   UNL     1      33.364  -8.380 -10.909  1.00  0.00     0.000 C 
BRANCH  10  11
HETATM   11  C   UNL     1      33.381  -9.153  -9.585  1.00  0.00     0.000 C 
BRANCH  11  12
HETATM   12  C   UNL     1      34.118 -10.489  -9.736  1.00  0.00     0.000 C 
BRANCH  12  13
HETATM   13  C   UNL     1      33.440 -11.588  -8.910  1.00  0.00     0.000 C 
BRANCH  13  14
HETATM   14  C   UNL     1      31.920 -11.390  -8.874  1.00  0.00     0.000 C 
BRANCH  14  15
HETATM   15  C   UNL     1      31.326 -11.923  -7.565  1.00  0.00     0.000 C 
BRANCH  15  16
HETATM   16  C   UNL     1      30.371 -10.900  -6.938  1.00  0.00     0.000 C 
BRANCH  16  17
HETATM   17  C   UNL     1      31.086  -9.569  -6.675  1.00  0.00    -0.000 C 
BRANCH  17  18
HETATM   18  C   UNL     1      32.202  -9.740  -5.637  1.00  0.00    -0.005 C 
HETATM   19  C   UNL     1      33.287  -8.683  -5.816  1.00  0.00     0.005 C 
ENDBRANCH  17  18
ENDBRANCH  16  17
ENDBRANCH  15  16
ENDBRANCH  14  15
ENDBRANCH  13  14
ENDBRANCH  12  13
ENDBRANCH  11  12
ENDBRANCH  10  11
ENDBRANCH   9  10
ENDBRANCH   8   9
ENDBRANCH   7   8
ENDBRANCH   6   7
ENDBRANCH   5   6
ENDBRANCH   3   5
ENDBRANCH   1   3
TORSDOF 15
ENDMDL
MODEL 19
REMARK VINA RESULT:      -4.2      4.014      6.670
REMARK  15 active torsions:
REMARK  status: ('A' for Active; 'I' for Inactive)
REMARK    1  A    between atoms: O_1  and  C_18 
REMARK    2  A    between atoms: C_3  and  C_4 
REMARK    3  A    between atoms: C_3  and  C_5 
REMARK    4  A    between atoms: C_4  and  C_6 
REMARK    5  A    between atoms: C_5  and  C_7 
REMARK    6  A    between atoms: C_6  and  C_8 
REMARK    7  A    between atoms: C_7  and  C_9 
REMARK    8  A    between atoms: C_8  and  C_10 
REMARK    9  A    between atoms: C_9  and  C_11 
REMARK   10  A    between atoms: C_10  and  C_12 
REMARK   11  A    between atoms: C_11  and  C_13 
REMARK   12  A    between atoms: C_12  and  C_14 
REMARK   13  A    between atoms: C_13  and  C_15 
REMARK   14  A    between atoms: C_14  and  C_16 
REMARK   15  A    between atoms: C_16  and  C_18 
ROOT
HETATM    1  O   UNL     1      32.104 -11.567 -15.725  1.00  0.00    -0.776 OA
HETATM    2  H   UNL     1      33.003 -11.467 -16.067  1.00  0.00     0.167 HD
ENDROOT
BRANCH   1   3
HETATM    3  C   UNL     1      31.128 -10.689 -16.043  1.00  0.00     0.139 C 
HETATM    4  O   UNL     1      31.385  -9.728 -16.755  1.00  0.00    -0.650 OA
BRANCH   3   5
HETATM    5  C   UNL     1      29.738 -10.918 -15.510  1.00  0.00     0.110 C 
BRANCH   5   6
HETATM    6  C   UNL     1      29.656 -10.824 -13.979  1.00  0.00     0.010 C 
BRANCH   6   7
HETATM    7  C   UNL     1      28.333 -11.403 -13.463  1.00  0.00     0.001 C 
BRANCH   7   8
HETATM    8  C   UNL     1      28.274 -11.359 -11.931  1.00  0.00     0.000 C 
BRANCH   8   9
HETATM    9  C   UNL     1      29.388 -10.472 -11.362  1.00  0.00     0.000 C 
BRANCH   9  10
HETATM   10  C   UNL     1      30.264 -11.252 -10.376  1.00  0.00     0.000 C 
BRANCH  10  11
HETATM   11  C   UNL     1      29.901 -10.909  -8.926  1.00  0.00     0.000 C 
BRANCH  11  12
HETATM   12  C   UNL     1      31.159 -10.642  -8.092  1.00  0.00     0.000 C 
BRANCH  12  13
HETATM   13  C   UNL     1      32.404 -10.562  -8.982  1.00  0.00     0.000 C 
BRANCH  13  14
HETATM   14  C   UNL     1      33.089  -9.196  -8.847  1.00  0.00     0.000 C 
BRANCH  14  15
HETATM   15  C   UNL     1      33.601  -8.701 -10.205  1.00  0.00     0.000 C 
BRANCH  15  16
HETATM   16  C   UNL     1      32.451  -8.561 -11.209  1.00  0.00     0.000 C 
BRANCH  16  17
HETATM   17  C   UNL     1      32.883  -9.019 -12.607  1.00  0.00    -0.000 C 
BRANCH  17  18
HETATM   18  C   UNL     1      33.196 -10.519 -12.622  1.00  0.00    -0.005 C 
HETATM   19  C   UNL     1      34.558 -10.791 -13.256  1.00  0.00     0.005 C 
ENDBRANCH  17  18
ENDBRANCH  16  17
ENDBRANCH  15  16
ENDBRANCH  14  15
ENDBRANCH  13  14
ENDBRANCH  12  13
ENDBRANCH  11  12
ENDBRANCH  10  11
ENDBRANCH   9  10
ENDBRANCH   8   9
ENDBRANCH   7   8
ENDBRANCH   6   7
ENDBRANCH   5   6
ENDBRANCH   3   5
ENDBRANCH   1   3
TORSDOF 15
ENDMDL
MODEL 20
REMARK VINA RESULT:      -4.1      3.535      6.732
REMARK  15 active torsions:
REMARK  status: ('A' for Active; 'I' for Inactive)
REMARK    1  A    between atoms: O_1  and  C_18 
REMARK    2  A    between atoms: C_3  and  C_4 
REMARK    3  A    between atoms: C_3  and  C_5 
REMARK    4  A    between atoms: C_4  and  C_6 
REMARK    5  A    between atoms: C_5  and  C_7 
REMARK    6  A    between atoms: C_6  and  C_8 
REMARK    7  A    between atoms: C_7  and  C_9 
REMARK    8  A    between atoms: C_8  and  C_10 
REMARK    9  A    between atoms: C_9  and  C_11 
REMARK   10  A    between atoms: C_10  and  C_12 
REMARK   11  A    between atoms: C_11  and  C_13 
REMARK   12  A    between atoms: C_12  and  C_14 
REMARK   13  A    between atoms: C_13  and  C_15 
REMARK   14  A    between atoms: C_14  and  C_16 
REMARK   15  A    between atoms: C_16  and  C_18 
ROOT
HETATM    1  O   UNL     1      28.459 -12.025  -7.404  1.00  0.00    -0.776 OA
HETATM    2  H   UNL     1      28.000 -12.665  -7.966  1.00  0.00     0.167 HD
ENDROOT
BRANCH   1   3
HETATM    3  C   UNL     1      29.392 -11.189  -7.907  1.00  0.00     0.139 C 
HETATM    4  O   UNL     1      30.161 -10.612  -7.151  1.00  0.00    -0.650 OA
BRANCH   3   5
HETATM    5  C   UNL     1      29.463 -10.985  -9.398  1.00  0.00     0.110 C 
BRANCH   5   6
HETATM    6  C   UNL     1      30.856 -10.553  -9.882  1.00  0.00     0.010 C 
BRANCH   6   7
HETATM    7  C   UNL     1      30.828 -10.176 -11.367  1.00  0.00     0.001 C 
BRANCH   7   8
HETATM    8  C   UNL     1      29.611 -10.791 -12.069  1.00  0.00     0.000 C 
BRANCH   8   9
HETATM    9  C   UNL     1      29.984 -11.316 -13.460  1.00  0.00     0.000 C 
BRANCH   9  10
HETATM   10  C   UNL     1      28.971 -10.853 -14.513  1.00  0.00     0.000 C 
BRANCH  10  11
HETATM   11  C   UNL     1      29.672 -10.479 -15.824  1.00  0.00     0.000 C 
BRANCH  11  12
HETATM   12  C   UNL     1      31.194 -10.445 -15.645  1.00  0.00     0.000 C 
BRANCH  12  13
HETATM   13  C   UNL     1      31.793  -9.177 -16.264  1.00  0.00     0.000 C 
BRANCH  13  14
HETATM   14  C   UNL     1      33.067  -8.752 -15.523  1.00  0.00     0.000 C 
BRANCH  14  15
HETATM   15  C   UNL     1      33.141  -9.404 -14.137  1.00  0.00     0.000 C 
BRANCH  15  16
HETATM   16  C   UNL     1      34.544  -9.960 -13.865  1.00  0.00     0.000 C 
BRANCH  16  17
HETATM   17  C   UNL     1      34.587 -11.477 -14.089  1.00  0.00    -0.000 C 
BRANCH  17  18
HETATM   18  C   UNL     1      33.470 -12.179 -13.309  1.00  0.00    -0.005 C 
HETATM   19  C   UNL     1      33.822 -12.298 -11.829  1.00  0.00     0.005 C 
ENDBRANCH  17  18
ENDBRANCH  16  17
ENDBRANCH  15  16
ENDBRANCH  14  15
ENDBRANCH  13  14
ENDBRANCH  12  13
ENDBRANCH  11  12
ENDBRANCH  10  11
ENDBRANCH   9  10
ENDBRANCH   8   9
ENDBRANCH   7   8
ENDBRANCH   6   7
ENDBRANCH   5   6
ENDBRANCH   3   5
ENDBRANCH   1   3
TORSDOF 15
ENDMDL
