MODEL 1
REMARK VINA RESULT:      -5.6      0.000      0.000
REMARK  15 active torsions:
REMARK  status: ('A' for Active; 'I' for Inactive)
REMARK    1  A    between atoms: O_1  and  C_23 
REMARK    2  A    between atoms: C_3  and  C_7 
REMARK    3  A    between atoms: C_3  and  C_8 
REMARK    4  A    between atoms: C_4  and  C_10 
REMARK    5  A    between atoms: C_4  and  C_11 
REMARK    6  A    between atoms: C_5  and  C_12 
REMARK    7  A    between atoms: C_5  and  C_13 
REMARK    8  A    between atoms: C_6  and  C_15 
REMARK    9  A    between atoms: C_6  and  C_16 
REMARK   10  A    between atoms: C_7  and  C_23 
REMARK   11  A    between atoms: C_9  and  C_17 
REMARK   12  A    between atoms: C_9  and  C_18 
REMARK   13  A    between atoms: C_14  and  C_19 
REMARK   14  A    between atoms: C_14  and  C_20 
REMARK   15  A    between atoms: C_21  and  C_22 
ROOT
HETATM    1  O   UNL     1      34.029  -8.067 -10.322  1.00  0.00    -0.776 OA
HETATM    2  H   UNL     1      33.439  -7.640  -9.685  1.00  0.00     0.167 HD
ENDROOT
BRANCH   1   3
HETATM    3  C   UNL     1      33.748  -8.082 -11.642  1.00  0.00     0.139 C 
HETATM    4  O   UNL     1      34.387  -7.380 -12.412  1.00  0.00    -0.650 OA
BRANCH   3   5
HETATM    5  C   UNL     1      32.651  -8.967 -12.161  1.00  0.00     0.113 C 
BRANCH   5   6
HETATM    6  C   UNL     1      33.157  -9.851 -13.307  1.00  0.00     0.037 C 
BRANCH   6   7
HETATM    7  C   UNL     1      32.464  -9.495 -14.600  1.00  0.00    -0.030 C 
HETATM    8  C   UNL     1      31.404 -10.121 -15.153  1.00  0.00    -0.027 C 
BRANCH   8   9
HETATM    9  C   UNL     1      30.660 -11.324 -14.613  1.00  0.00     0.053 C 
BRANCH   9  10
HETATM   10  C   UNL     1      29.197 -11.010 -14.424  1.00  0.00    -0.027 C 
HETATM   11  C   UNL     1      28.486 -11.225 -13.303  1.00  0.00    -0.027 C 
BRANCH  11  12
HETATM   12  C   UNL     1      29.035 -11.768 -12.010  1.00  0.00     0.053 C 
BRANCH  12  13
HETATM   13  C   UNL     1      29.648 -10.666 -11.182  1.00  0.00    -0.027 C 
HETATM   14  C   UNL     1      29.546 -10.512  -9.848  1.00  0.00    -0.027 C 
BRANCH  14  15
HETATM   15  C   UNL     1      28.753 -11.386  -8.913  1.00  0.00     0.053 C 
BRANCH  15  16
HETATM   16  C   UNL     1      28.351 -10.562  -7.710  1.00  0.00    -0.027 C 
HETATM   17  C   UNL     1      29.032 -10.386  -6.560  1.00  0.00    -0.027 C 
BRANCH  17  18
HETATM   18  C   UNL     1      30.379 -10.960  -6.204  1.00  0.00     0.053 C 
BRANCH  18  19
HETATM   19  C   UNL     1      31.487 -10.145  -6.828  1.00  0.00    -0.027 C 
HETATM   20  C   UNL     1      32.529 -10.597  -7.556  1.00  0.00    -0.027 C 
BRANCH  20  21
HETATM   21  C   UNL     1      32.803 -12.023  -7.964  1.00  0.00     0.053 C 
BRANCH  21  22
HETATM   22  C   UNL     1      32.659 -12.191  -9.459  1.00  0.00    -0.027 C 
HETATM   23  C   UNL     1      33.613 -12.016 -10.394  1.00  0.00    -0.031 C 
BRANCH  23  24
HETATM   24  C   UNL     1      35.039 -11.591 -10.153  1.00  0.00     0.022 C 
HETATM   25  C   UNL     1      35.973 -12.023 -11.276  1.00  0.00     0.009 C 
ENDBRANCH  23  24
ENDBRANCH  21  22
ENDBRANCH  20  21
ENDBRANCH  18  19
ENDBRANCH  17  18
ENDBRANCH  15  16
ENDBRANCH  14  15
ENDBRANCH  12  13
ENDBRANCH  11  12
ENDBRANCH   9  10
ENDBRANCH   8   9
ENDBRANCH   6   7
ENDBRANCH   5   6
ENDBRANCH   3   5
ENDBRANCH   1   3
TORSDOF 15
ENDMDL
MODEL 2
REMARK VINA RESULT:      -5.5      1.923      5.360
REMARK  15 active torsions:
REMARK  status: ('A' for Active; 'I' for Inactive)
REMARK    1  A    between atoms: O_1  and  C_23 
REMARK    2  A    between atoms: C_3  and  C_7 
REMARK    3  A    between atoms: C_3  and  C_8 
REMARK    4  A    between atoms: C_4  and  C_10 
REMARK    5  A    between atoms: C_4  and  C_11 
REMARK    6  A    between atoms: C_5  and  C_12 
REMARK    7  A    between atoms: C_5  and  C_13 
REMARK    8  A    between atoms: C_6  and  C_15 
REMARK    9  A    between atoms: C_6  and  C_16 
REMARK   10  A    between atoms: C_7  and  C_23 
REMARK   11  A    between atoms: C_9  and  C_17 
REMARK   12  A    between atoms: C_9  and  C_18 
REMARK   13  A    between atoms: C_14  and  C_19 
REMARK   14  A    between atoms: C_14  and  C_20 
REMARK   15  A    between atoms: C_21  and  C_22 
ROOT
HETATM    1  O   UNL     1      33.607  -8.678 -15.861  1.00  0.00    -0.776 OA
HETATM    2  H   UNL     1      32.895  -8.457 -16.476  1.00  0.00     0.167 HD
ENDROOT
BRANCH   1   3
HETATM    3  C   UNL     1      33.904  -9.961 -15.560  1.00  0.00     0.139 C 
HETATM    4  O   UNL     1      34.469 -10.668 -16.383  1.00  0.00    -0.650 OA
BRANCH   3   5
HETATM    5  C   UNL     1      33.542 -10.513 -14.212  1.00  0.00     0.113 C 
BRANCH   5   6
HETATM    6  C   UNL     1      33.895  -9.519 -13.100  1.00  0.00     0.037 C 
BRANCH   6   7
HETATM    7  C   UNL     1      32.643  -8.949 -12.478  1.00  0.00    -0.030 C 
HETATM    8  C   UNL     1      32.421  -8.715 -11.167  1.00  0.00    -0.027 C 
BRANCH   8   9
HETATM    9  C   UNL     1      33.367  -8.968 -10.013  1.00  0.00     0.053 C 
BRANCH   9  10
HETATM   10  C   UNL     1      33.234 -10.384  -9.510  1.00  0.00    -0.027 C 
HETATM   11  C   UNL     1      32.766 -10.748  -8.303  1.00  0.00    -0.027 C 
BRANCH  11  12
HETATM   12  C   UNL     1      32.234  -9.809  -7.252  1.00  0.00     0.053 C 
BRANCH  12  13
HETATM   13  C   UNL     1      31.439 -10.559  -6.212  1.00  0.00    -0.027 C 
HETATM   14  C   UNL     1      30.100 -10.695  -6.169  1.00  0.00    -0.027 C 
BRANCH  14  15
HETATM   15  C   UNL     1      29.115 -10.082  -7.128  1.00  0.00     0.053 C 
BRANCH  15  16
HETATM   16  C   UNL     1      28.470 -11.191  -7.930  1.00  0.00    -0.027 C 
HETATM   17  C   UNL     1      28.555 -11.412  -9.257  1.00  0.00    -0.027 C 
BRANCH  17  18
HETATM   18  C   UNL     1      29.335 -10.609 -10.264  1.00  0.00     0.053 C 
BRANCH  18  19
HETATM   19  C   UNL     1      30.285 -11.497 -11.034  1.00  0.00    -0.027 C 
HETATM   20  C   UNL     1      30.228 -11.822 -12.342  1.00  0.00    -0.027 C 
BRANCH  20  21
HETATM   21  C   UNL     1      29.228 -11.329 -13.358  1.00  0.00     0.053 C 
BRANCH  21  22
HETATM   22  C   UNL     1      29.910 -10.511 -14.430  1.00  0.00    -0.027 C 
HETATM   23  C   UNL     1      29.799 -10.661 -15.764  1.00  0.00    -0.031 C 
BRANCH  23  24
HETATM   24  C   UNL     1      28.978 -11.698 -16.486  1.00  0.00     0.022 C 
HETATM   25  C   UNL     1      28.188 -11.111 -17.648  1.00  0.00     0.009 C 
ENDBRANCH  23  24
ENDBRANCH  21  22
ENDBRANCH  20  21
ENDBRANCH  18  19
ENDBRANCH  17  18
ENDBRANCH  15  16
ENDBRANCH  14  15
ENDBRANCH  12  13
ENDBRANCH  11  12
ENDBRANCH   9  10
ENDBRANCH   8   9
ENDBRANCH   6   7
ENDBRANCH   5   6
ENDBRANCH   3   5
ENDBRANCH   1   3
TORSDOF 15
ENDMDL
MODEL 3
REMARK VINA RESULT:      -5.5      1.956      4.347
REMARK  15 active torsions:
REMARK  status: ('A' for Active; 'I' for Inactive)
REMARK    1  A    between atoms: O_1  and  C_23 
REMARK    2  A    between atoms: C_3  and  C_7 
REMARK    3  A    between atoms: C_3  and  C_8 
REMARK    4  A    between atoms: C_4  and  C_10 
REMARK    5  A    between atoms: C_4  and  C_11 
REMARK    6  A    between atoms: C_5  and  C_12 
REMARK    7  A    between atoms: C_5  and  C_13 
REMARK    8  A    between atoms: C_6  and  C_15 
REMARK    9  A    between atoms: C_6  and  C_16 
REMARK   10  A    between atoms: C_7  and  C_23 
REMARK   11  A    between atoms: C_9  and  C_17 
REMARK   12  A    between atoms: C_9  and  C_18 
REMARK   13  A    between atoms: C_14  and  C_19 
REMARK   14  A    between atoms: C_14  and  C_20 
REMARK   15  A    between atoms: C_21  and  C_22 
ROOT
HETATM    1  O   UNL     1      34.041  -8.339 -10.320  1.00  0.00    -0.776 OA
HETATM    2  H   UNL     1      34.892  -7.880 -10.309  1.00  0.00     0.167 HD
ENDROOT
BRANCH   1   3
HETATM    3  C   UNL     1      33.353  -8.519 -11.468  1.00  0.00     0.139 C 
HETATM    4  O   UNL     1      33.900  -8.330 -12.546  1.00  0.00    -0.650 OA
BRANCH   3   5
HETATM    5  C   UNL     1      31.917  -8.954 -11.417  1.00  0.00     0.113 C 
BRANCH   5   6
HETATM    6  C   UNL     1      31.783 -10.441 -11.767  1.00  0.00     0.037 C 
BRANCH   6   7
HETATM    7  C   UNL     1      30.329 -10.826 -11.907  1.00  0.00    -0.030 C 
HETATM    8  C   UNL     1      29.415 -10.920 -10.919  1.00  0.00    -0.027 C 
BRANCH   8   9
HETATM    9  C   UNL     1      29.625 -10.664  -9.442  1.00  0.00     0.053 C 
BRANCH   9  10
HETATM   10  C   UNL     1      28.489 -11.235  -8.631  1.00  0.00    -0.027 C 
HETATM   11  C   UNL     1      28.565 -11.646  -7.352  1.00  0.00    -0.027 C 
BRANCH  11  12
HETATM   12  C   UNL     1      29.788 -11.556  -6.477  1.00  0.00     0.053 C 
BRANCH  12  13
HETATM   13  C   UNL     1      29.516 -10.709  -5.258  1.00  0.00    -0.027 C 
HETATM   14  C   UNL     1      30.105 -10.825  -4.053  1.00  0.00    -0.027 C 
BRANCH  14  15
HETATM   15  C   UNL     1      31.125 -11.860  -3.660  1.00  0.00     0.053 C 
BRANCH  15  16
HETATM   16  C   UNL     1      32.506 -11.295  -3.912  1.00  0.00    -0.027 C 
HETATM   17  C   UNL     1      33.651 -11.972  -4.129  1.00  0.00    -0.027 C 
BRANCH  17  18
HETATM   18  C   UNL     1      33.827 -13.466  -4.191  1.00  0.00     0.053 C 
BRANCH  18  19
HETATM   19  C   UNL     1      34.538 -13.866  -5.463  1.00  0.00    -0.027 C 
HETATM   20  C   UNL     1      34.046 -13.850  -6.719  1.00  0.00    -0.027 C 
BRANCH  20  21
HETATM   21  C   UNL     1      32.683 -13.374  -7.156  1.00  0.00     0.053 C 
BRANCH  21  22
HETATM   22  C   UNL     1      32.777 -12.581  -8.439  1.00  0.00    -0.027 C 
HETATM   23  C   UNL     1      33.140 -11.290  -8.575  1.00  0.00    -0.031 C 
BRANCH  23  24
HETATM   24  C   UNL     1      33.518 -10.343  -7.466  1.00  0.00     0.022 C 
HETATM   25  C   UNL     1      32.428  -9.319  -7.177  1.00  0.00     0.009 C 
ENDBRANCH  23  24
ENDBRANCH  21  22
ENDBRANCH  20  21
ENDBRANCH  18  19
ENDBRANCH  17  18
ENDBRANCH  15  16
ENDBRANCH  14  15
ENDBRANCH  12  13
ENDBRANCH  11  12
ENDBRANCH   9  10
ENDBRANCH   8   9
ENDBRANCH   6   7
ENDBRANCH   5   6
ENDBRANCH   3   5
ENDBRANCH   1   3
TORSDOF 15
ENDMDL
MODEL 4
REMARK VINA RESULT:      -5.5     19.105     20.762
REMARK  15 active torsions:
REMARK  status: ('A' for Active; 'I' for Inactive)
REMARK    1  A    between atoms: O_1  and  C_23 
REMARK    2  A    between atoms: C_3  and  C_7 
REMARK    3  A    between atoms: C_3  and  C_8 
REMARK    4  A    between atoms: C_4  and  C_10 
REMARK    5  A    between atoms: C_4  and  C_11 
REMARK    6  A    between atoms: C_5  and  C_12 
REMARK    7  A    between atoms: C_5  and  C_13 
REMARK    8  A    between atoms: C_6  and  C_15 
REMARK    9  A    between atoms: C_6  and  C_16 
REMARK   10  A    between atoms: C_7  and  C_23 
REMARK   11  A    between atoms: C_9  and  C_17 
REMARK   12  A    between atoms: C_9  and  C_18 
REMARK   13  A    between atoms: C_14  and  C_19 
REMARK   14  A    between atoms: C_14  and  C_20 
REMARK   15  A    between atoms: C_21  and  C_22 
ROOT
HETATM    1  O   UNL     1      39.427   5.683 -16.862  1.00  0.00    -0.776 OA
HETATM    2  H   UNL     1      38.483   5.498 -16.759  1.00  0.00     0.167 HD
ENDROOT
BRANCH   1   3
HETATM    3  C   UNL     1      40.133   6.303 -15.892  1.00  0.00     0.139 C 
HETATM    4  O   UNL     1      40.394   5.714 -14.853  1.00  0.00    -0.650 OA
BRANCH   3   5
HETATM    5  C   UNL     1      40.598   7.717 -16.096  1.00  0.00     0.113 C 
BRANCH   5   6
HETATM    6  C   UNL     1      39.717   8.701 -15.319  1.00  0.00     0.037 C 
BRANCH   6   7
HETATM    7  C   UNL     1      38.567   9.177 -16.175  1.00  0.00    -0.030 C 
HETATM    8  C   UNL     1      37.579  10.021 -15.810  1.00  0.00    -0.027 C 
BRANCH   8   9
HETATM    9  C   UNL     1      37.385  10.688 -14.465  1.00  0.00     0.053 C 
BRANCH   9  10
HETATM   10  C   UNL     1      36.005  10.412 -13.923  1.00  0.00    -0.027 C 
HETATM   11  C   UNL     1      35.580  10.692 -12.678  1.00  0.00    -0.027 C 
BRANCH  11  12
HETATM   12  C   UNL     1      36.389  11.387 -11.613  1.00  0.00     0.053 C 
BRANCH  12  13
HETATM   13  C   UNL     1      36.518  10.520 -10.385  1.00  0.00    -0.027 C 
HETATM   14  C   UNL     1      37.554   9.718 -10.074  1.00  0.00    -0.027 C 
BRANCH  14  15
HETATM   15  C   UNL     1      38.779   9.484 -10.917  1.00  0.00     0.053 C 
BRANCH  15  16
HETATM   16  C   UNL     1      38.467   8.401 -11.927  1.00  0.00    -0.027 C 
HETATM   17  C   UNL     1      38.996   7.163 -12.004  1.00  0.00    -0.027 C 
BRANCH  17  18
HETATM   18  C   UNL     1      40.018   6.552 -11.083  1.00  0.00     0.053 C 
BRANCH  18  19
HETATM   19  C   UNL     1      41.389   7.128 -11.350  1.00  0.00    -0.027 C 
HETATM   20  C   UNL     1      42.110   7.937 -10.547  1.00  0.00    -0.027 C 
BRANCH  20  21
HETATM   21  C   UNL     1      41.738   8.414  -9.165  1.00  0.00     0.053 C 
BRANCH  21  22
HETATM   22  C   UNL     1      42.182   7.422  -8.116  1.00  0.00    -0.027 C 
HETATM   23  C   UNL     1      41.409   6.553  -7.436  1.00  0.00    -0.031 C 
BRANCH  23  24
HETATM   24  C   UNL     1      39.916   6.393  -7.562  1.00  0.00     0.022 C 
HETATM   25  C   UNL     1      39.150   7.536  -6.909  1.00  0.00     0.009 C 
ENDBRANCH  23  24
ENDBRANCH  21  22
ENDBRANCH  20  21
ENDBRANCH  18  19
ENDBRANCH  17  18
ENDBRANCH  15  16
ENDBRANCH  14  15
ENDBRANCH  12  13
ENDBRANCH  11  12
ENDBRANCH   9  10
ENDBRANCH   8   9
ENDBRANCH   6   7
ENDBRANCH   5   6
ENDBRANCH   3   5
ENDBRANCH   1   3
TORSDOF 15
ENDMDL
MODEL 5
REMARK VINA RESULT:      -5.4      4.097      6.850
REMARK  15 active torsions:
REMARK  status: ('A' for Active; 'I' for Inactive)
REMARK    1  A    between atoms: O_1  and  C_23 
REMARK    2  A    between atoms: C_3  and  C_7 
REMARK    3  A    between atoms: C_3  and  C_8 
REMARK    4  A    between atoms: C_4  and  C_10 
REMARK    5  A    between atoms: C_4  and  C_11 
REMARK    6  A    between atoms: C_5  and  C_12 
REMARK    7  A    between atoms: C_5  and  C_13 
REMARK    8  A    between atoms: C_6  and  C_15 
REMARK    9  A    between atoms: C_6  and  C_16 
REMARK   10  A    between atoms: C_7  and  C_23 
REMARK   11  A    between atoms: C_9  and  C_17 
REMARK   12  A    between atoms: C_9  and  C_18 
REMARK   13  A    between atoms: C_14  and  C_19 
REMARK   14  A    between atoms: C_14  and  C_20 
REMARK   15  A    between atoms: C_21  and  C_22 
ROOT
HETATM    1  O   UNL     1      34.038  -7.771 -20.602  1.00  0.00    -0.776 OA
HETATM    2  H   UNL     1      33.725  -6.868 -20.749  1.00  0.00     0.167 HD
ENDROOT
BRANCH   1   3
HETATM    3  C   UNL     1      33.184  -8.771 -20.297  1.00  0.00     0.139 C 
HETATM    4  O   UNL     1      32.124  -8.876 -20.897  1.00  0.00    -0.650 OA
BRANCH   3   5
HETATM    5  C   UNL     1      33.543  -9.756 -19.220  1.00  0.00     0.113 C 
BRANCH   5   6
HETATM    6  C   UNL     1      34.042  -9.035 -17.963  1.00  0.00     0.037 C 
BRANCH   6   7
HETATM    7  C   UNL     1      32.880  -8.504 -17.158  1.00  0.00    -0.030 C 
HETATM    8  C   UNL     1      32.695  -8.621 -15.826  1.00  0.00    -0.027 C 
BRANCH   8   9
HETATM    9  C   UNL     1      33.600  -9.307 -14.826  1.00  0.00     0.053 C 
BRANCH   9  10
HETATM   10  C   UNL     1      33.830  -8.431 -13.620  1.00  0.00    -0.027 C 
HETATM   11  C   UNL     1      33.532  -8.752 -12.348  1.00  0.00    -0.027 C 
BRANCH  11  12
HETATM   12  C   UNL     1      32.966 -10.070 -11.888  1.00  0.00     0.053 C 
BRANCH  12  13
HETATM   13  C   UNL     1      31.480  -9.964 -11.653  1.00  0.00    -0.027 C 
HETATM   14  C   UNL     1      30.504 -10.426 -12.458  1.00  0.00    -0.027 C 
BRANCH  14  15
HETATM   15  C   UNL     1      30.699 -11.102 -13.789  1.00  0.00     0.053 C 
BRANCH  15  16
HETATM   16  C   UNL     1      29.354 -11.214 -14.473  1.00  0.00    -0.027 C 
HETATM   17  C   UNL     1      29.070 -11.027 -15.777  1.00  0.00    -0.027 C 
BRANCH  17  18
HETATM   18  C   UNL     1      30.037 -10.678 -16.878  1.00  0.00     0.053 C 
BRANCH  18  19
HETATM   19  C   UNL     1      30.472 -11.921 -17.619  1.00  0.00    -0.027 C 
HETATM   20  C   UNL     1      31.648 -12.572 -17.512  1.00  0.00    -0.027 C 
BRANCH  20  21
HETATM   21  C   UNL     1      32.789 -12.242 -16.583  1.00  0.00     0.053 C 
BRANCH  21  22
HETATM   22  C   UNL     1      33.586 -13.481 -16.247  1.00  0.00    -0.027 C 
HETATM   23  C   UNL     1      34.151 -13.791 -15.064  1.00  0.00    -0.031 C 
BRANCH  23  24
HETATM   24  C   UNL     1      34.128 -12.954 -13.812  1.00  0.00     0.022 C 
HETATM   25  C   UNL     1      33.291 -13.583 -12.706  1.00  0.00     0.009 C 
ENDBRANCH  23  24
ENDBRANCH  21  22
ENDBRANCH  20  21
ENDBRANCH  18  19
ENDBRANCH  17  18
ENDBRANCH  15  16
ENDBRANCH  14  15
ENDBRANCH  12  13
ENDBRANCH  11  12
ENDBRANCH   9  10
ENDBRANCH   8   9
ENDBRANCH   6   7
ENDBRANCH   5   6
ENDBRANCH   3   5
ENDBRANCH   1   3
TORSDOF 15
ENDMDL
MODEL 6
REMARK VINA RESULT:      -5.4      2.100      3.990
REMARK  15 active torsions:
REMARK  status: ('A' for Active; 'I' for Inactive)
REMARK    1  A    between atoms: O_1  and  C_23 
REMARK    2  A    between atoms: C_3  and  C_7 
REMARK    3  A    between atoms: C_3  and  C_8 
REMARK    4  A    between atoms: C_4  and  C_10 
REMARK    5  A    between atoms: C_4  and  C_11 
REMARK    6  A    between atoms: C_5  and  C_12 
REMARK    7  A    between atoms: C_5  and  C_13 
REMARK    8  A    between atoms: C_6  and  C_15 
REMARK    9  A    between atoms: C_6  and  C_16 
REMARK   10  A    between atoms: C_7  and  C_23 
REMARK   11  A    between atoms: C_9  and  C_17 
REMARK   12  A    between atoms: C_9  and  C_18 
REMARK   13  A    between atoms: C_14  and  C_19 
REMARK   14  A    between atoms: C_14  and  C_20 
REMARK   15  A    between atoms: C_21  and  C_22 
ROOT
HETATM    1  O   UNL     1      34.585 -10.368 -16.975  1.00  0.00    -0.776 OA
HETATM    2  H   UNL     1      34.443 -11.204 -17.440  1.00  0.00     0.167 HD
ENDROOT
BRANCH   1   3
HETATM    3  C   UNL     1      33.675  -9.371 -17.025  1.00  0.00     0.139 C 
HETATM    4  O   UNL     1      33.997  -8.233 -16.716  1.00  0.00    -0.650 OA
BRANCH   3   5
HETATM    5  C   UNL     1      32.269  -9.665 -17.463  1.00  0.00     0.113 C 
BRANCH   5   6
HETATM    6  C   UNL     1      31.287  -9.502 -16.298  1.00  0.00     0.037 C 
BRANCH   6   7
HETATM    7  C   UNL     1      30.071 -10.373 -16.501  1.00  0.00    -0.030 C 
HETATM    8  C   UNL     1      29.381 -11.040 -15.550  1.00  0.00    -0.027 C 
BRANCH   8   9
HETATM    9  C   UNL     1      29.660 -11.073 -14.063  1.00  0.00     0.053 C 
BRANCH   9  10
HETATM   10  C   UNL     1      28.391 -10.866 -13.275  1.00  0.00    -0.027 C 
HETATM   11  C   UNL     1      28.263 -11.001 -11.942  1.00  0.00    -0.027 C 
BRANCH  11  12
HETATM   12  C   UNL     1      29.381 -11.326 -10.986  1.00  0.00     0.053 C 
BRANCH  12  13
HETATM   13  C   UNL     1      28.903 -11.257  -9.557  1.00  0.00    -0.027 C 
HETATM   14  C   UNL     1      29.662 -11.039  -8.466  1.00  0.00    -0.027 C 
BRANCH  14  15
HETATM   15  C   UNL     1      31.157 -10.867  -8.446  1.00  0.00     0.053 C 
BRANCH  15  16
HETATM   16  C   UNL     1      31.786 -12.175  -8.019  1.00  0.00    -0.027 C 
HETATM   17  C   UNL     1      32.872 -12.781  -8.539  1.00  0.00    -0.027 C 
BRANCH  17  18
HETATM   18  C   UNL     1      33.738 -12.284  -9.667  1.00  0.00     0.053 C 
BRANCH  18  19
HETATM   19  C   UNL     1      34.082 -13.413 -10.611  1.00  0.00    -0.027 C 
HETATM   20  C   UNL     1      33.488 -13.711 -11.785  1.00  0.00    -0.027 C 
BRANCH  20  21
HETATM   21  C   UNL     1      32.373 -12.951 -12.459  1.00  0.00     0.053 C 
BRANCH  21  22
HETATM   22  C   UNL     1      32.876 -12.241 -13.695  1.00  0.00    -0.027 C 
HETATM   23  C   UNL     1      33.419 -11.010 -13.764  1.00  0.00    -0.031 C 
BRANCH  23  24
HETATM   24  C   UNL     1      33.627 -10.056 -12.617  1.00  0.00     0.022 C 
HETATM   25  C   UNL     1      32.325  -9.429 -12.136  1.00  0.00     0.009 C 
ENDBRANCH  23  24
ENDBRANCH  21  22
ENDBRANCH  20  21
ENDBRANCH  18  19
ENDBRANCH  17  18
ENDBRANCH  15  16
ENDBRANCH  14  15
ENDBRANCH  12  13
ENDBRANCH  11  12
ENDBRANCH   9  10
ENDBRANCH   8   9
ENDBRANCH   6   7
ENDBRANCH   5   6
ENDBRANCH   3   5
ENDBRANCH   1   3
TORSDOF 15
ENDMDL
MODEL 7
REMARK VINA RESULT:      -5.4      1.983      6.165
REMARK  15 active torsions:
REMARK  status: ('A' for Active; 'I' for Inactive)
REMARK    1  A    between atoms: O_1  and  C_23 
REMARK    2  A    between atoms: C_3  and  C_7 
REMARK    3  A    between atoms: C_3  and  C_8 
REMARK    4  A    between atoms: C_4  and  C_10 
REMARK    5  A    between atoms: C_4  and  C_11 
REMARK    6  A    between atoms: C_5  and  C_12 
REMARK    7  A    between atoms: C_5  and  C_13 
REMARK    8  A    between atoms: C_6  and  C_15 
REMARK    9  A    between atoms: C_6  and  C_16 
REMARK   10  A    between atoms: C_7  and  C_23 
REMARK   11  A    between atoms: C_9  and  C_17 
REMARK   12  A    between atoms: C_9  and  C_18 
REMARK   13  A    between atoms: C_14  and  C_19 
REMARK   14  A    between atoms: C_14  and  C_20 
REMARK   15  A    between atoms: C_21  and  C_22 
ROOT
HETATM    1  O   UNL     1      34.420 -10.359 -10.596  1.00  0.00    -0.776 OA
HETATM    2  H   UNL     1      34.575  -9.535 -10.114  1.00  0.00     0.167 HD
ENDROOT
BRANCH   1   3
HETATM    3  C   UNL     1      34.205 -11.524  -9.948  1.00  0.00     0.139 C 
HETATM    4  O   UNL     1      34.515 -11.636  -8.771  1.00  0.00    -0.650 OA
BRANCH   3   5
HETATM    5  C   UNL     1      33.580 -12.679 -10.677  1.00  0.00     0.113 C 
BRANCH   5   6
HETATM    6  C   UNL     1      33.898 -12.616 -12.176  1.00  0.00     0.037 C 
BRANCH   6   7
HETATM    7  C   UNL     1      32.630 -12.466 -12.982  1.00  0.00    -0.030 C 
HETATM    8  C   UNL     1      32.329 -11.471 -13.844  1.00  0.00    -0.027 C 
BRANCH   8   9
HETATM    9  C   UNL     1      33.183 -10.275 -14.206  1.00  0.00     0.053 C 
BRANCH   9  10
HETATM   10  C   UNL     1      32.361  -9.218 -14.898  1.00  0.00    -0.027 C 
HETATM   11  C   UNL     1      32.327  -8.992 -16.224  1.00  0.00    -0.027 C 
BRANCH  11  12
HETATM   12  C   UNL     1      33.061  -9.794 -17.266  1.00  0.00     0.053 C 
BRANCH  12  13
HETATM   13  C   UNL     1      32.163 -10.102 -18.439  1.00  0.00    -0.027 C 
HETATM   14  C   UNL     1      31.143 -10.980 -18.460  1.00  0.00    -0.027 C 
BRANCH  14  15
HETATM   15  C   UNL     1      30.718 -11.873 -17.325  1.00  0.00     0.053 C 
BRANCH  15  16
HETATM   16  C   UNL     1      29.225 -11.723 -17.128  1.00  0.00    -0.027 C 
HETATM   17  C   UNL     1      28.570 -11.346 -16.011  1.00  0.00    -0.027 C 
BRANCH  17  18
HETATM   18  C   UNL     1      29.177 -10.963 -14.687  1.00  0.00     0.053 C 
BRANCH  18  19
HETATM   19  C   UNL     1      28.401 -11.579 -13.547  1.00  0.00    -0.027 C 
HETATM   20  C   UNL     1      28.480 -11.267 -12.237  1.00  0.00    -0.027 C 
BRANCH  20  21
HETATM   21  C   UNL     1      29.324 -10.186 -11.608  1.00  0.00     0.053 C 
BRANCH  21  22
HETATM   22  C   UNL     1      30.326 -10.779 -10.646  1.00  0.00    -0.027 C 
HETATM   23  C   UNL     1      30.112 -11.140  -9.365  1.00  0.00    -0.031 C 
BRANCH  23  24
HETATM   24  C   UNL     1      28.820 -11.013  -8.602  1.00  0.00     0.022 C 
HETATM   25  C   UNL     1      28.921 -11.571  -7.188  1.00  0.00     0.009 C 
ENDBRANCH  23  24
ENDBRANCH  21  22
ENDBRANCH  20  21
ENDBRANCH  18  19
ENDBRANCH  17  18
ENDBRANCH  15  16
ENDBRANCH  14  15
ENDBRANCH  12  13
ENDBRANCH  11  12
ENDBRANCH   9  10
ENDBRANCH   8   9
ENDBRANCH   6   7
ENDBRANCH   5   6
ENDBRANCH   3   5
ENDBRANCH   1   3
TORSDOF 15
ENDMDL
MODEL 8
REMARK VINA RESULT:      -5.4      2.530      5.475
REMARK  15 active torsions:
REMARK  status: ('A' for Active; 'I' for Inactive)
REMARK    1  A    between atoms: O_1  and  C_23 
REMARK    2  A    between atoms: C_3  and  C_7 
REMARK    3  A    between atoms: C_3  and  C_8 
REMARK    4  A    between atoms: C_4  and  C_10 
REMARK    5  A    between atoms: C_4  and  C_11 
REMARK    6  A    between atoms: C_5  and  C_12 
REMARK    7  A    between atoms: C_5  and  C_13 
REMARK    8  A    between atoms: C_6  and  C_15 
REMARK    9  A    between atoms: C_6  and  C_16 
REMARK   10  A    between atoms: C_7  and  C_23 
REMARK   11  A    between atoms: C_9  and  C_17 
REMARK   12  A    between atoms: C_9  and  C_18 
REMARK   13  A    between atoms: C_14  and  C_19 
REMARK   14  A    between atoms: C_14  and  C_20 
REMARK   15  A    between atoms: C_21  and  C_22 
ROOT
HETATM    1  O   UNL     1      33.937 -15.416 -11.787  1.00  0.00    -0.776 OA
HETATM    2  H   UNL     1      34.095 -15.456 -10.834  1.00  0.00     0.167 HD
ENDROOT
BRANCH   1   3
HETATM    3  C   UNL     1      34.080 -14.264 -12.477  1.00  0.00     0.139 C 
HETATM    4  O   UNL     1      35.172 -13.955 -12.933  1.00  0.00    -0.650 OA
BRANCH   3   5
HETATM    5  C   UNL     1      32.894 -13.367 -12.686  1.00  0.00     0.113 C 
BRANCH   5   6
HETATM    6  C   UNL     1      33.131 -11.990 -12.055  1.00  0.00     0.037 C 
BRANCH   6   7
HETATM    7  C   UNL     1      33.088 -10.908 -13.107  1.00  0.00    -0.030 C 
HETATM    8  C   UNL     1      32.614  -9.652 -12.960  1.00  0.00    -0.027 C 
BRANCH   8   9
HETATM    9  C   UNL     1      32.017  -9.031 -11.716  1.00  0.00     0.053 C 
BRANCH   9  10
HETATM   10  C   UNL     1      33.033  -8.176 -11.002  1.00  0.00    -0.027 C 
HETATM   11  C   UNL     1      33.732  -8.533  -9.910  1.00  0.00    -0.027 C 
BRANCH  11  12
HETATM   12  C   UNL     1      33.669  -9.878  -9.233  1.00  0.00     0.053 C 
BRANCH  12  13
HETATM   13  C   UNL     1      32.981  -9.774  -7.894  1.00  0.00    -0.027 C 
HETATM   14  C   UNL     1      31.910 -10.479  -7.486  1.00  0.00    -0.027 C 
BRANCH  14  15
HETATM   15  C   UNL     1      31.145 -11.485  -8.304  1.00  0.00     0.053 C 
BRANCH  15  16
HETATM   16  C   UNL     1      29.787 -10.905  -8.633  1.00  0.00    -0.027 C 
HETATM   17  C   UNL     1      29.169 -10.869  -9.831  1.00  0.00    -0.027 C 
BRANCH  17  18
HETATM   18  C   UNL     1      29.682 -11.420 -11.135  1.00  0.00     0.053 C 
BRANCH  18  19
HETATM   19  C   UNL     1      28.536 -11.732 -12.069  1.00  0.00    -0.027 C 
HETATM   20  C   UNL     1      28.439 -11.427 -13.380  1.00  0.00    -0.027 C 
BRANCH  20  21
HETATM   21  C   UNL     1      29.480 -10.750 -14.236  1.00  0.00     0.053 C 
BRANCH  21  22
HETATM   22  C   UNL     1      29.267 -11.071 -15.697  1.00  0.00    -0.027 C 
HETATM   23  C   UNL     1      30.212 -11.222 -16.645  1.00  0.00    -0.031 C 
BRANCH  23  24
HETATM   24  C   UNL     1      31.700 -11.084 -16.458  1.00  0.00     0.022 C 
HETATM   25  C   UNL     1      32.408 -12.432 -16.403  1.00  0.00     0.009 C 
ENDBRANCH  23  24
ENDBRANCH  21  22
ENDBRANCH  20  21
ENDBRANCH  18  19
ENDBRANCH  17  18
ENDBRANCH  15  16
ENDBRANCH  14  15
ENDBRANCH  12  13
ENDBRANCH  11  12
ENDBRANCH   9  10
ENDBRANCH   8   9
ENDBRANCH   6   7
ENDBRANCH   5   6
ENDBRANCH   3   5
ENDBRANCH   1   3
TORSDOF 15
ENDMDL
MODEL 9
REMARK VINA RESULT:      -5.3      1.466      5.592
REMARK  15 active torsions:
REMARK  status: ('A' for Active; 'I' for Inactive)
REMARK    1  A    between atoms: O_1  and  C_23 
REMARK    2  A    between atoms: C_3  and  C_7 
REMARK    3  A    between atoms: C_3  and  C_8 
REMARK    4  A    between atoms: C_4  and  C_10 
REMARK    5  A    between atoms: C_4  and  C_11 
REMARK    6  A    between atoms: C_5  and  C_12 
REMARK    7  A    between atoms: C_5  and  C_13 
REMARK    8  A    between atoms: C_6  and  C_15 
REMARK    9  A    between atoms: C_6  and  C_16 
REMARK   10  A    between atoms: C_7  and  C_23 
REMARK   11  A    between atoms: C_9  and  C_17 
REMARK   12  A    between atoms: C_9  and  C_18 
REMARK   13  A    between atoms: C_14  and  C_19 
REMARK   14  A    between atoms: C_14  and  C_20 
REMARK   15  A    between atoms: C_21  and  C_22 
ROOT
HETATM    1  O   UNL     1      34.556  -7.976  -8.055  1.00  0.00    -0.776 OA
HETATM    2  H   UNL     1      34.294  -7.805  -7.139  1.00  0.00     0.167 HD
ENDROOT
BRANCH   1   3
HETATM    3  C   UNL     1      33.795  -8.733  -8.874  1.00  0.00     0.139 C 
HETATM    4  O   UNL     1      34.027  -8.759 -10.075  1.00  0.00    -0.650 OA
BRANCH   3   5
HETATM    5  C   UNL     1      32.665  -9.543  -8.306  1.00  0.00     0.113 C 
BRANCH   5   6
HETATM    6  C   UNL     1      33.161 -10.465  -7.187  1.00  0.00     0.037 C 
BRANCH   6   7
HETATM    7  C   UNL     1      32.573 -10.054  -5.858  1.00  0.00    -0.030 C 
HETATM    8  C   UNL     1      31.331 -10.323  -5.402  1.00  0.00    -0.027 C 
BRANCH   8   9
HETATM    9  C   UNL     1      30.238 -11.097  -6.108  1.00  0.00     0.053 C 
BRANCH   9  10
HETATM   10  C   UNL     1      29.156 -10.169  -6.601  1.00  0.00    -0.027 C 
HETATM   11  C   UNL     1      28.515 -10.266  -7.780  1.00  0.00    -0.027 C 
BRANCH  11  12
HETATM   12  C   UNL     1      28.721 -11.356  -8.799  1.00  0.00     0.053 C 
BRANCH  12  13
HETATM   13  C   UNL     1      29.934 -11.075  -9.651  1.00  0.00    -0.027 C 
HETATM   14  C   UNL     1      29.944 -10.505 -10.870  1.00  0.00    -0.027 C 
BRANCH  14  15
HETATM   15  C   UNL     1      28.735 -10.075 -11.658  1.00  0.00     0.053 C 
BRANCH  15  16
HETATM   16  C   UNL     1      28.401 -11.160 -12.657  1.00  0.00    -0.027 C 
HETATM   17  C   UNL     1      28.897 -11.325 -13.900  1.00  0.00    -0.027 C 
BRANCH  17  18
HETATM   18  C   UNL     1      29.926 -10.468 -14.589  1.00  0.00     0.053 C 
BRANCH  18  19
HETATM   19  C   UNL     1      31.025 -11.323 -15.176  1.00  0.00    -0.027 C 
HETATM   20  C   UNL     1      32.043 -11.916 -14.520  1.00  0.00    -0.027 C 
BRANCH  20  21
HETATM   21  C   UNL     1      32.294 -11.909 -13.032  1.00  0.00     0.053 C 
BRANCH  21  22
HETATM   22  C   UNL     1      32.889 -13.223 -12.581  1.00  0.00    -0.027 C 
HETATM   23  C   UNL     1      33.587 -13.456 -11.453  1.00  0.00    -0.031 C 
BRANCH  23  24
HETATM   24  C   UNL     1      33.946 -12.446 -10.394  1.00  0.00     0.022 C 
HETATM   25  C   UNL     1      35.388 -11.969 -10.509  1.00  0.00     0.009 C 
ENDBRANCH  23  24
ENDBRANCH  21  22
ENDBRANCH  20  21
ENDBRANCH  18  19
ENDBRANCH  17  18
ENDBRANCH  15  16
ENDBRANCH  14  15
ENDBRANCH  12  13
ENDBRANCH  11  12
ENDBRANCH   9  10
ENDBRANCH   8   9
ENDBRANCH   6   7
ENDBRANCH   5   6
ENDBRANCH   3   5
ENDBRANCH   1   3
TORSDOF 15
ENDMDL
MODEL 10
REMARK VINA RESULT:      -5.3      3.101      5.318
REMARK  15 active torsions:
REMARK  status: ('A' for Active; 'I' for Inactive)
REMARK    1  A    between atoms: O_1  and  C_23 
REMARK    2  A    between atoms: C_3  and  C_7 
REMARK    3  A    between atoms: C_3  and  C_8 
REMARK    4  A    between atoms: C_4  and  C_10 
REMARK    5  A    between atoms: C_4  and  C_11 
REMARK    6  A    between atoms: C_5  and  C_12 
REMARK    7  A    between atoms: C_5  and  C_13 
REMARK    8  A    between atoms: C_6  and  C_15 
REMARK    9  A    between atoms: C_6  and  C_16 
REMARK   10  A    between atoms: C_7  and  C_23 
REMARK   11  A    between atoms: C_9  and  C_17 
REMARK   12  A    between atoms: C_9  and  C_18 
REMARK   13  A    between atoms: C_14  and  C_19 
REMARK   14  A    between atoms: C_14  and  C_20 
REMARK   15  A    between atoms: C_21  and  C_22 
ROOT
HETATM    1  O   UNL     1      34.518 -16.938 -11.707  1.00  0.00    -0.776 OA
HETATM    2  H   UNL     1      35.358 -17.188 -11.298  1.00  0.00     0.167 HD
ENDROOT
BRANCH   1   3
HETATM    3  C   UNL     1      34.428 -15.876 -12.536  1.00  0.00     0.139 C 
HETATM    4  O   UNL     1      34.677 -16.006 -13.726  1.00  0.00    -0.650 OA
BRANCH   3   5
HETATM    5  C   UNL     1      34.016 -14.538 -11.992  1.00  0.00     0.113 C 
BRANCH   5   6
HETATM    6  C   UNL     1      33.603 -13.591 -13.125  1.00  0.00     0.037 C 
BRANCH   6   7
HETATM    7  C   UNL     1      34.577 -12.443 -13.241  1.00  0.00    -0.030 C 
HETATM    8  C   UNL     1      34.306 -11.129 -13.086  1.00  0.00    -0.027 C 
BRANCH   8   9
HETATM    9  C   UNL     1      32.970 -10.495 -12.762  1.00  0.00     0.053 C 
BRANCH   9  10
HETATM   10  C   UNL     1      33.136  -9.034 -12.430  1.00  0.00    -0.027 C 
HETATM   11  C   UNL     1      32.949  -8.477 -11.220  1.00  0.00    -0.027 C 
BRANCH  11  12
HETATM   12  C   UNL     1      32.596  -9.223  -9.959  1.00  0.00     0.053 C 
BRANCH  12  13
HETATM   13  C   UNL     1      33.657  -9.030  -8.904  1.00  0.00    -0.027 C 
HETATM   14  C   UNL     1      33.467  -9.000  -7.572  1.00  0.00    -0.027 C 
BRANCH  14  15
HETATM   15  C   UNL     1      32.144  -9.104  -6.861  1.00  0.00     0.053 C 
BRANCH  15  16
HETATM   16  C   UNL     1      32.098 -10.424  -6.123  1.00  0.00    -0.027 C 
HETATM   17  C   UNL     1      31.637 -11.609  -6.572  1.00  0.00    -0.027 C 
BRANCH  17  18
HETATM   18  C   UNL     1      31.070 -11.906  -7.936  1.00  0.00     0.053 C 
BRANCH  18  19
HETATM   19  C   UNL     1      29.706 -11.277  -8.096  1.00  0.00    -0.027 C 
HETATM   20  C   UNL     1      29.102 -10.908  -9.243  1.00  0.00    -0.027 C 
BRANCH  20  21
HETATM   21  C   UNL     1      29.626 -11.089 -10.647  1.00  0.00     0.053 C 
BRANCH  21  22
HETATM   22  C   UNL     1      28.521 -11.522 -11.582  1.00  0.00    -0.027 C 
HETATM   23  C   UNL     1      28.526 -11.473 -12.928  1.00  0.00    -0.031 C 
BRANCH  23  24
HETATM   24  C   UNL     1      29.638 -10.953 -13.802  1.00  0.00     0.022 C 
HETATM   25  C   UNL     1      29.254 -10.922 -15.276  1.00  0.00     0.009 C 
ENDBRANCH  23  24
ENDBRANCH  21  22
ENDBRANCH  20  21
ENDBRANCH  18  19
ENDBRANCH  17  18
ENDBRANCH  15  16
ENDBRANCH  14  15
ENDBRANCH  12  13
ENDBRANCH  11  12
ENDBRANCH   9  10
ENDBRANCH   8   9
ENDBRANCH   6   7
ENDBRANCH   5   6
ENDBRANCH   3   5
ENDBRANCH   1   3
TORSDOF 15
ENDMDL
MODEL 11
REMARK VINA RESULT:      -5.2      2.828      6.457
REMARK  15 active torsions:
REMARK  status: ('A' for Active; 'I' for Inactive)
REMARK    1  A    between atoms: O_1  and  C_23 
REMARK    2  A    between atoms: C_3  and  C_7 
REMARK    3  A    between atoms: C_3  and  C_8 
REMARK    4  A    between atoms: C_4  and  C_10 
REMARK    5  A    between atoms: C_4  and  C_11 
REMARK    6  A    between atoms: C_5  and  C_12 
REMARK    7  A    between atoms: C_5  and  C_13 
REMARK    8  A    between atoms: C_6  and  C_15 
REMARK    9  A    between atoms: C_6  and  C_16 
REMARK   10  A    between atoms: C_7  and  C_23 
REMARK   11  A    between atoms: C_9  and  C_17 
REMARK   12  A    between atoms: C_9  and  C_18 
REMARK   13  A    between atoms: C_14  and  C_19 
REMARK   14  A    between atoms: C_14  and  C_20 
REMARK   15  A    between atoms: C_21  and  C_22 
ROOT
HETATM    1  O   UNL     1      33.764 -16.016  -7.491  1.00  0.00    -0.776 OA
HETATM    2  H   UNL     1      33.315 -16.581  -6.847  1.00  0.00     0.167 HD
ENDROOT
BRANCH   1   3
HETATM    3  C   UNL     1      34.030 -14.719  -7.224  1.00  0.00     0.139 C 
HETATM    4  O   UNL     1      33.878 -14.283  -6.092  1.00  0.00    -0.650 OA
BRANCH   3   5
HETATM    5  C   UNL     1      34.517 -13.816  -8.322  1.00  0.00     0.113 C 
BRANCH   5   6
HETATM    6  C   UNL     1      33.344 -13.109  -9.010  1.00  0.00     0.037 C 
BRANCH   6   7
HETATM    7  C   UNL     1      33.094 -11.759  -8.382  1.00  0.00    -0.030 C 
HETATM    8  C   UNL     1      31.983 -11.363  -7.725  1.00  0.00    -0.027 C 
BRANCH   8   9
HETATM    9  C   UNL     1      30.729 -12.170  -7.463  1.00  0.00     0.053 C 
BRANCH   9  10
HETATM   10  C   UNL     1      29.506 -11.289  -7.498  1.00  0.00    -0.027 C 
HETATM   11  C   UNL     1      28.861 -10.886  -8.608  1.00  0.00    -0.027 C 
BRANCH  11  12
HETATM   12  C   UNL     1      29.209 -11.290 -10.017  1.00  0.00     0.053 C 
BRANCH  12  13
HETATM   13  C   UNL     1      30.194 -10.323 -10.626  1.00  0.00    -0.027 C 
HETATM   14  C   UNL     1      30.802 -10.443 -11.821  1.00  0.00    -0.027 C 
BRANCH  14  15
HETATM   15  C   UNL     1      30.661 -11.598 -12.776  1.00  0.00     0.053 C 
BRANCH  15  16
HETATM   16  C   UNL     1      29.824 -11.148 -13.953  1.00  0.00    -0.027 C 
HETATM   17  C   UNL     1      30.241 -10.849 -15.200  1.00  0.00    -0.027 C 
BRANCH  17  18
HETATM   18  C   UNL     1      31.650 -10.912 -15.727  1.00  0.00     0.053 C 
BRANCH  18  19
HETATM   19  C   UNL     1      32.217  -9.522 -15.900  1.00  0.00    -0.027 C 
HETATM   20  C   UNL     1      33.087  -8.884 -15.091  1.00  0.00    -0.027 C 
BRANCH  20  21
HETATM   21  C   UNL     1      33.743  -9.431 -13.848  1.00  0.00     0.053 C 
BRANCH  21  22
HETATM   22  C   UNL     1      34.781 -10.472 -14.201  1.00  0.00    -0.027 C 
HETATM   23  C   UNL     1      34.971 -11.667 -13.608  1.00  0.00    -0.031 C 
BRANCH  23  24
HETATM   24  C   UNL     1      34.196 -12.224 -12.442  1.00  0.00     0.022 C 
HETATM   25  C   UNL     1      33.596 -13.592 -12.741  1.00  0.00     0.009 C 
ENDBRANCH  23  24
ENDBRANCH  21  22
ENDBRANCH  20  21
ENDBRANCH  18  19
ENDBRANCH  17  18
ENDBRANCH  15  16
ENDBRANCH  14  15
ENDBRANCH  12  13
ENDBRANCH  11  12
ENDBRANCH   9  10
ENDBRANCH   8   9
ENDBRANCH   6   7
ENDBRANCH   5   6
ENDBRANCH   3   5
ENDBRANCH   1   3
TORSDOF 15
ENDMDL
MODEL 12
REMARK VINA RESULT:      -5.2      1.900      3.692
REMARK  15 active torsions:
REMARK  status: ('A' for Active; 'I' for Inactive)
REMARK    1  A    between atoms: O_1  and  C_23 
REMARK    2  A    between atoms: C_3  and  C_7 
REMARK    3  A    between atoms: C_3  and  C_8 
REMARK    4  A    between atoms: C_4  and  C_10 
REMARK    5  A    between atoms: C_4  and  C_11 
REMARK    6  A    between atoms: C_5  and  C_12 
REMARK    7  A    between atoms: C_5  and  C_13 
REMARK    8  A    between atoms: C_6  and  C_15 
REMARK    9  A    between atoms: C_6  and  C_16 
REMARK   10  A    between atoms: C_7  and  C_23 
REMARK   11  A    between atoms: C_9  and  C_17 
REMARK   12  A    between atoms: C_9  and  C_18 
REMARK   13  A    between atoms: C_14  and  C_19 
REMARK   14  A    between atoms: C_14  and  C_20 
REMARK   15  A    between atoms: C_21  and  C_22 
ROOT
HETATM    1  O   UNL     1      32.170  -8.526 -16.013  1.00  0.00    -0.776 OA
HETATM    2  H   UNL     1      31.666  -7.715 -16.174  1.00  0.00     0.167 HD
ENDROOT
BRANCH   1   3
HETATM    3  C   UNL     1      31.833  -9.692 -16.603  1.00  0.00     0.139 C 
HETATM    4  O   UNL     1      32.644 -10.279 -17.306  1.00  0.00    -0.650 OA
BRANCH   3   5
HETATM    5  C   UNL     1      30.463 -10.269 -16.389  1.00  0.00     0.113 C 
BRANCH   5   6
HETATM    6  C   UNL     1      30.300 -10.775 -14.952  1.00  0.00     0.037 C 
BRANCH   6   7
HETATM    7  C   UNL     1      28.905 -11.309 -14.730  1.00  0.00    -0.030 C 
HETATM    8  C   UNL     1      28.182 -11.245 -13.592  1.00  0.00    -0.027 C 
BRANCH   8   9
HETATM    9  C   UNL     1      28.593 -10.627 -12.273  1.00  0.00     0.053 C 
BRANCH   9  10
HETATM   10  C   UNL     1      29.522 -11.543 -11.517  1.00  0.00    -0.027 C 
HETATM   11  C   UNL     1      29.829 -11.447 -10.211  1.00  0.00    -0.027 C 
BRANCH  11  12
HETATM   12  C   UNL     1      29.254 -10.440  -9.250  1.00  0.00     0.053 C 
BRANCH  12  13
HETATM   13  C   UNL     1      28.629 -11.127  -8.061  1.00  0.00    -0.027 C 
HETATM   14  C   UNL     1      29.272 -11.607  -6.981  1.00  0.00    -0.027 C 
BRANCH  14  15
HETATM   15  C   UNL     1      30.761 -11.600  -6.760  1.00  0.00     0.053 C 
BRANCH  15  16
HETATM   16  C   UNL     1      31.135 -10.322  -6.042  1.00  0.00    -0.027 C 
HETATM   17  C   UNL     1      31.876  -9.297  -6.508  1.00  0.00    -0.027 C 
BRANCH  17  18
HETATM   18  C   UNL     1      32.497  -9.171  -7.875  1.00  0.00     0.053 C 
BRANCH  18  19
HETATM   19  C   UNL     1      33.809  -9.919  -7.935  1.00  0.00    -0.027 C 
HETATM   20  C   UNL     1      34.102 -11.004  -8.681  1.00  0.00    -0.027 C 
BRANCH  20  21
HETATM   21  C   UNL     1      33.201 -11.694  -9.675  1.00  0.00     0.053 C 
BRANCH  21  22
HETATM   22  C   UNL     1      33.723 -11.525 -11.082  1.00  0.00    -0.027 C 
HETATM   23  C   UNL     1      33.434 -10.531 -11.945  1.00  0.00    -0.031 C 
BRANCH  23  24
HETATM   24  C   UNL     1      32.504  -9.372 -11.699  1.00  0.00     0.022 C 
HETATM   25  C   UNL     1      33.247  -8.099 -11.315  1.00  0.00     0.009 C 
ENDBRANCH  23  24
ENDBRANCH  21  22
ENDBRANCH  20  21
ENDBRANCH  18  19
ENDBRANCH  17  18
ENDBRANCH  15  16
ENDBRANCH  14  15
ENDBRANCH  12  13
ENDBRANCH  11  12
ENDBRANCH   9  10
ENDBRANCH   8   9
ENDBRANCH   6   7
ENDBRANCH   5   6
ENDBRANCH   3   5
ENDBRANCH   1   3
TORSDOF 15
ENDMDL
MODEL 13
REMARK VINA RESULT:      -5.2      3.055      4.959
REMARK  15 active torsions:
REMARK  status: ('A' for Active; 'I' for Inactive)
REMARK    1  A    between atoms: O_1  and  C_23 
REMARK    2  A    between atoms: C_3  and  C_7 
REMARK    3  A    between atoms: C_3  and  C_8 
REMARK    4  A    between atoms: C_4  and  C_10 
REMARK    5  A    between atoms: C_4  and  C_11 
REMARK    6  A    between atoms: C_5  and  C_12 
REMARK    7  A    between atoms: C_5  and  C_13 
REMARK    8  A    between atoms: C_6  and  C_15 
REMARK    9  A    between atoms: C_6  and  C_16 
REMARK   10  A    between atoms: C_7  and  C_23 
REMARK   11  A    between atoms: C_9  and  C_17 
REMARK   12  A    between atoms: C_9  and  C_18 
REMARK   13  A    between atoms: C_14  and  C_19 
REMARK   14  A    between atoms: C_14  and  C_20 
REMARK   15  A    between atoms: C_21  and  C_22 
ROOT
HETATM    1  O   UNL     1      33.637  -8.416 -17.172  1.00  0.00    -0.776 OA
HETATM    2  H   UNL     1      34.167  -8.168 -16.402  1.00  0.00     0.167 HD
ENDROOT
BRANCH   1   3
HETATM    3  C   UNL     1      33.866  -9.565 -17.843  1.00  0.00     0.139 C 
HETATM    4  O   UNL     1      34.917  -9.723 -18.448  1.00  0.00    -0.650 OA
BRANCH   3   5
HETATM    5  C   UNL     1      32.827 -10.650 -17.841  1.00  0.00     0.113 C 
BRANCH   5   6
HETATM    6  C   UNL     1      31.463 -10.100 -17.406  1.00  0.00     0.037 C 
BRANCH   6   7
HETATM    7  C   UNL     1      30.452 -11.216 -17.291  1.00  0.00    -0.030 C 
HETATM    8  C   UNL     1      29.691 -11.515 -16.217  1.00  0.00    -0.027 C 
BRANCH   8   9
HETATM    9  C   UNL     1      29.669 -10.808 -14.878  1.00  0.00     0.053 C 
BRANCH   9  10
HETATM   10  C   UNL     1      28.510 -11.284 -14.039  1.00  0.00    -0.027 C 
HETATM   11  C   UNL     1      28.557 -11.574 -12.726  1.00  0.00    -0.027 C 
BRANCH  11  12
HETATM   12  C   UNL     1      29.766 -11.419 -11.840  1.00  0.00     0.053 C 
BRANCH  12  13
HETATM   13  C   UNL     1      29.806 -10.045 -11.220  1.00  0.00    -0.027 C 
HETATM   14  C   UNL     1      30.896  -9.405 -10.756  1.00  0.00    -0.027 C 
BRANCH  14  15
HETATM   15  C   UNL     1      32.298  -9.954 -10.718  1.00  0.00     0.053 C 
BRANCH  15  16
HETATM   16  C   UNL     1      33.236  -8.918 -11.295  1.00  0.00    -0.027 C 
HETATM   17  C   UNL     1      33.525  -8.693 -12.593  1.00  0.00    -0.027 C 
BRANCH  17  18
HETATM   18  C   UNL     1      32.961  -9.415 -13.788  1.00  0.00     0.053 C 
BRANCH  18  19
HETATM   19  C   UNL     1      33.971 -10.391 -14.347  1.00  0.00    -0.027 C 
HETATM   20  C   UNL     1      33.882 -11.736 -14.379  1.00  0.00    -0.027 C 
BRANCH  20  21
HETATM   21  C   UNL     1      32.723 -12.583 -13.912  1.00  0.00     0.053 C 
BRANCH  21  22
HETATM   22  C   UNL     1      32.895 -12.978 -12.464  1.00  0.00    -0.027 C 
HETATM   23  C   UNL     1      33.586 -14.031 -11.983  1.00  0.00    -0.031 C 
BRANCH  23  24
HETATM   24  C   UNL     1      34.328 -15.062 -12.792  1.00  0.00     0.022 C 
HETATM   25  C   UNL     1      35.757 -14.638 -13.107  1.00  0.00     0.009 C 
ENDBRANCH  23  24
ENDBRANCH  21  22
ENDBRANCH  20  21
ENDBRANCH  18  19
ENDBRANCH  17  18
ENDBRANCH  15  16
ENDBRANCH  14  15
ENDBRANCH  12  13
ENDBRANCH  11  12
ENDBRANCH   9  10
ENDBRANCH   8   9
ENDBRANCH   6   7
ENDBRANCH   5   6
ENDBRANCH   3   5
ENDBRANCH   1   3
TORSDOF 15
ENDMDL
MODEL 14
REMARK VINA RESULT:      -5.2      1.622      2.682
REMARK  15 active torsions:
REMARK  status: ('A' for Active; 'I' for Inactive)
REMARK    1  A    between atoms: O_1  and  C_23 
REMARK    2  A    between atoms: C_3  and  C_7 
REMARK    3  A    between atoms: C_3  and  C_8 
REMARK    4  A    between atoms: C_4  and  C_10 
REMARK    5  A    between atoms: C_4  and  C_11 
REMARK    6  A    between atoms: C_5  and  C_12 
REMARK    7  A    between atoms: C_5  and  C_13 
REMARK    8  A    between atoms: C_6  and  C_15 
REMARK    9  A    between atoms: C_6  and  C_16 
REMARK   10  A    between atoms: C_7  and  C_23 
REMARK   11  A    between atoms: C_9  and  C_17 
REMARK   12  A    between atoms: C_9  and  C_18 
REMARK   13  A    between atoms: C_14  and  C_19 
REMARK   14  A    between atoms: C_14  and  C_20 
REMARK   15  A    between atoms: C_21  and  C_22 
ROOT
HETATM    1  O   UNL     1      34.846  -6.866 -12.572  1.00  0.00    -0.776 OA
HETATM    2  H   UNL     1      34.487  -6.113 -13.061  1.00  0.00     0.167 HD
ENDROOT
BRANCH   1   3
HETATM    3  C   UNL     1      34.039  -7.821 -12.060  1.00  0.00     0.139 C 
HETATM    4  O   UNL     1      33.843  -7.875 -10.855  1.00  0.00    -0.650 OA
BRANCH   3   5
HETATM    5  C   UNL     1      33.382  -8.813 -12.977  1.00  0.00     0.113 C 
BRANCH   5   6
HETATM    6  C   UNL     1      33.403 -10.219 -12.368  1.00  0.00     0.037 C 
BRANCH   6   7
HETATM    7  C   UNL     1      33.280 -11.269 -13.446  1.00  0.00    -0.030 C 
HETATM    8  C   UNL     1      32.310 -12.200 -13.566  1.00  0.00    -0.027 C 
BRANCH   8   9
HETATM    9  C   UNL     1      31.120 -12.414 -12.655  1.00  0.00     0.053 C 
BRANCH   9  10
HETATM   10  C   UNL     1      30.013 -11.443 -12.980  1.00  0.00    -0.027 C 
HETATM   11  C   UNL     1      29.452 -10.575 -12.118  1.00  0.00    -0.027 C 
BRANCH  11  12
HETATM   12  C   UNL     1      29.868 -10.375 -10.685  1.00  0.00     0.053 C 
BRANCH  12  13
HETATM   13  C   UNL     1      28.873 -11.004  -9.742  1.00  0.00    -0.027 C 
HETATM   14  C   UNL     1      29.027 -11.189  -8.418  1.00  0.00    -0.027 C 
BRANCH  14  15
HETATM   15  C   UNL     1      30.252 -10.847  -7.611  1.00  0.00     0.053 C 
BRANCH  15  16
HETATM   16  C   UNL     1      31.100 -12.092  -7.474  1.00  0.00    -0.027 C 
HETATM   17  C   UNL     1      32.218 -12.412  -8.156  1.00  0.00    -0.027 C 
BRANCH  17  18
HETATM   18  C   UNL     1      32.906 -11.588  -9.212  1.00  0.00     0.053 C 
BRANCH  18  19
HETATM   19  C   UNL     1      34.107 -10.875  -8.634  1.00  0.00    -0.027 C 
HETATM   20  C   UNL     1      35.396 -11.005  -9.007  1.00  0.00    -0.027 C 
BRANCH  20  21
HETATM   21  C   UNL     1      35.938 -11.855 -10.130  1.00  0.00     0.053 C 
BRANCH  21  22
HETATM   22  C   UNL     1      35.992 -13.310  -9.725  1.00  0.00    -0.027 C 
HETATM   23  C   UNL     1      35.264 -14.324 -10.232  1.00  0.00    -0.031 C 
BRANCH  23  24
HETATM   24  C   UNL     1      34.216 -14.226 -11.309  1.00  0.00     0.022 C 
HETATM   25  C   UNL     1      34.416 -15.256 -12.413  1.00  0.00     0.009 C 
ENDBRANCH  23  24
ENDBRANCH  21  22
ENDBRANCH  20  21
ENDBRANCH  18  19
ENDBRANCH  17  18
ENDBRANCH  15  16
ENDBRANCH  14  15
ENDBRANCH  12  13
ENDBRANCH  11  12
ENDBRANCH   9  10
ENDBRANCH   8   9
ENDBRANCH   6   7
ENDBRANCH   5   6
ENDBRANCH   3   5
ENDBRANCH   1   3
TORSDOF 15
ENDMDL
MODEL 15
REMARK VINA RESULT:      -5.2      1.846      5.540
REMARK  15 active torsions:
REMARK  status: ('A' for Active; 'I' for Inactive)
REMARK    1  A    between atoms: O_1  and  C_23 
REMARK    2  A    between atoms: C_3  and  C_7 
REMARK    3  A    between atoms: C_3  and  C_8 
REMARK    4  A    between atoms: C_4  and  C_10 
REMARK    5  A    between atoms: C_4  and  C_11 
REMARK    6  A    between atoms: C_5  and  C_12 
REMARK    7  A    between atoms: C_5  and  C_13 
REMARK    8  A    between atoms: C_6  and  C_15 
REMARK    9  A    between atoms: C_6  and  C_16 
REMARK   10  A    between atoms: C_7  and  C_23 
REMARK   11  A    between atoms: C_9  and  C_17 
REMARK   12  A    between atoms: C_9  and  C_18 
REMARK   13  A    between atoms: C_14  and  C_19 
REMARK   14  A    between atoms: C_14  and  C_20 
REMARK   15  A    between atoms: C_21  and  C_22 
ROOT
HETATM    1  O   UNL     1      36.717 -11.617 -10.111  1.00  0.00    -0.776 OA
HETATM    2  H   UNL     1      36.480 -11.590 -11.048  1.00  0.00     0.167 HD
ENDROOT
BRANCH   1   3
HETATM    3  C   UNL     1      35.787 -11.833  -9.156  1.00  0.00     0.139 C 
HETATM    4  O   UNL     1      35.829 -11.204  -8.108  1.00  0.00    -0.650 OA
BRANCH   3   5
HETATM    5  C   UNL     1      34.701 -12.844  -9.387  1.00  0.00     0.113 C 
BRANCH   5   6
HETATM    6  C   UNL     1      33.320 -12.181  -9.358  1.00  0.00     0.037 C 
BRANCH   6   7
HETATM    7  C   UNL     1      32.522 -12.662  -8.170  1.00  0.00    -0.030 C 
HETATM    8  C   UNL     1      31.456 -12.055  -7.608  1.00  0.00    -0.027 C 
BRANCH   8   9
HETATM    9  C   UNL     1      30.808 -10.754  -8.030  1.00  0.00     0.053 C 
BRANCH   9  10
HETATM   10  C   UNL     1      29.349 -10.960  -8.351  1.00  0.00    -0.027 C 
HETATM   11  C   UNL     1      28.837 -11.176  -9.577  1.00  0.00    -0.027 C 
BRANCH  11  12
HETATM   12  C   UNL     1      29.636 -11.308 -10.847  1.00  0.00     0.053 C 
BRANCH  12  13
HETATM   13  C   UNL     1      28.761 -11.762 -11.988  1.00  0.00    -0.027 C 
HETATM   14  C   UNL     1      28.879 -11.407 -13.281  1.00  0.00    -0.027 C 
BRANCH  14  15
HETATM   15  C   UNL     1      29.885 -10.441 -13.847  1.00  0.00     0.053 C 
BRANCH  15  16
HETATM   16  C   UNL     1      30.803 -11.195 -14.784  1.00  0.00    -0.027 C 
HETATM   17  C   UNL     1      31.899 -11.915 -14.469  1.00  0.00    -0.027 C 
BRANCH  17  18
HETATM   18  C   UNL     1      32.463 -12.158 -13.094  1.00  0.00     0.053 C 
BRANCH  18  19
HETATM   19  C   UNL     1      33.882 -11.645 -13.002  1.00  0.00    -0.027 C 
HETATM   20  C   UNL     1      34.292 -10.361 -12.996  1.00  0.00    -0.027 C 
BRANCH  20  21
HETATM   21  C   UNL     1      33.422  -9.128 -13.024  1.00  0.00     0.053 C 
BRANCH  21  22
HETATM   22  C   UNL     1      32.361  -9.194 -11.951  1.00  0.00    -0.027 C 
HETATM   23  C   UNL     1      32.502  -8.895 -10.645  1.00  0.00    -0.031 C 
BRANCH  23  24
HETATM   24  C   UNL     1      33.766  -8.444  -9.959  1.00  0.00     0.022 C 
HETATM   25  C   UNL     1      33.719  -8.657  -8.452  1.00  0.00     0.009 C 
ENDBRANCH  23  24
ENDBRANCH  21  22
ENDBRANCH  20  21
ENDBRANCH  18  19
ENDBRANCH  17  18
ENDBRANCH  15  16
ENDBRANCH  14  15
ENDBRANCH  12  13
ENDBRANCH  11  12
ENDBRANCH   9  10
ENDBRANCH   8   9
ENDBRANCH   6   7
ENDBRANCH   5   6
ENDBRANCH   3   5
ENDBRANCH   1   3
TORSDOF 15
ENDMDL
MODEL 16
REMARK VINA RESULT:      -5.1      1.499      2.394
REMARK  15 active torsions:
REMARK  status: ('A' for Active; 'I' for Inactive)
REMARK    1  A    between atoms: O_1  and  C_23 
REMARK    2  A    between atoms: C_3  and  C_7 
REMARK    3  A    between atoms: C_3  and  C_8 
REMARK    4  A    between atoms: C_4  and  C_10 
REMARK    5  A    between atoms: C_4  and  C_11 
REMARK    6  A    between atoms: C_5  and  C_12 
REMARK    7  A    between atoms: C_5  and  C_13 
REMARK    8  A    between atoms: C_6  and  C_15 
REMARK    9  A    between atoms: C_6  and  C_16 
REMARK   10  A    between atoms: C_7  and  C_23 
REMARK   11  A    between atoms: C_9  and  C_17 
REMARK   12  A    between atoms: C_9  and  C_18 
REMARK   13  A    between atoms: C_14  and  C_19 
REMARK   14  A    between atoms: C_14  and  C_20 
REMARK   15  A    between atoms: C_21  and  C_22 
ROOT
HETATM    1  O   UNL     1      33.871  -8.363  -9.663  1.00  0.00    -0.776 OA
HETATM    2  H   UNL     1      33.247  -8.036  -9.001  1.00  0.00     0.167 HD
ENDROOT
BRANCH   1   3
HETATM    3  C   UNL     1      33.603  -8.282 -10.984  1.00  0.00     0.139 C 
HETATM    4  O   UNL     1      34.130  -7.413 -11.664  1.00  0.00    -0.650 OA
BRANCH   3   5
HETATM    5  C   UNL     1      32.658  -9.265 -11.615  1.00  0.00     0.113 C 
BRANCH   5   6
HETATM    6  C   UNL     1      33.324  -9.987 -12.791  1.00  0.00     0.037 C 
BRANCH   6   7
HETATM    7  C   UNL     1      32.715  -9.547 -14.100  1.00  0.00    -0.030 C 
HETATM    8  C   UNL     1      31.651 -10.095 -14.725  1.00  0.00    -0.027 C 
BRANCH   8   9
HETATM    9  C   UNL     1      30.818 -11.273 -14.267  1.00  0.00     0.053 C 
BRANCH   9  10
HETATM   10  C   UNL     1      29.360 -10.900 -14.183  1.00  0.00    -0.027 C 
HETATM   11  C   UNL     1      28.540 -11.163 -13.150  1.00  0.00    -0.027 C 
BRANCH  11  12
HETATM   12  C   UNL     1      28.944 -11.829 -11.861  1.00  0.00     0.053 C 
BRANCH  12  13
HETATM   13  C   UNL     1      29.699 -10.870 -10.974  1.00  0.00    -0.027 C 
HETATM   14  C   UNL     1      29.568 -10.736  -9.641  1.00  0.00    -0.027 C 
BRANCH  14  15
HETATM   15  C   UNL     1      28.599 -11.484  -8.766  1.00  0.00     0.053 C 
BRANCH  15  16
HETATM   16  C   UNL     1      28.324 -10.653  -7.532  1.00  0.00    -0.027 C 
HETATM   17  C   UNL     1      29.050 -10.588  -6.398  1.00  0.00    -0.027 C 
BRANCH  17  18
HETATM   18  C   UNL     1      30.330 -11.321  -6.094  1.00  0.00     0.053 C 
BRANCH  18  19
HETATM   19  C   UNL     1      31.498 -10.665  -6.792  1.00  0.00    -0.027 C 
HETATM   20  C   UNL     1      32.497 -11.271  -7.467  1.00  0.00    -0.027 C 
BRANCH  20  21
HETATM   21  C   UNL     1      32.651 -12.748  -7.731  1.00  0.00     0.053 C 
BRANCH  21  22
HETATM   22  C   UNL     1      33.979 -13.251  -7.215  1.00  0.00    -0.027 C 
HETATM   23  C   UNL     1      34.350 -13.398  -5.928  1.00  0.00    -0.031 C 
BRANCH  23  24
HETATM   24  C   UNL     1      33.523 -13.071  -4.713  1.00  0.00     0.022 C 
HETATM   25  C   UNL     1      33.969 -13.845  -3.479  1.00  0.00     0.009 C 
ENDBRANCH  23  24
ENDBRANCH  21  22
ENDBRANCH  20  21
ENDBRANCH  18  19
ENDBRANCH  17  18
ENDBRANCH  15  16
ENDBRANCH  14  15
ENDBRANCH  12  13
ENDBRANCH  11  12
ENDBRANCH   9  10
ENDBRANCH   8   9
ENDBRANCH   6   7
ENDBRANCH   5   6
ENDBRANCH   3   5
ENDBRANCH   1   3
TORSDOF 15
ENDMDL
MODEL 17
REMARK VINA RESULT:      -5.1      3.494      7.623
REMARK  15 active torsions:
REMARK  status: ('A' for Active; 'I' for Inactive)
REMARK    1  A    between atoms: O_1  and  C_23 
REMARK    2  A    between atoms: C_3  and  C_7 
REMARK    3  A    between atoms: C_3  and  C_8 
REMARK    4  A    between atoms: C_4  and  C_10 
REMARK    5  A    between atoms: C_4  and  C_11 
REMARK    6  A    between atoms: C_5  and  C_12 
REMARK    7  A    between atoms: C_5  and  C_13 
REMARK    8  A    between atoms: C_6  and  C_15 
REMARK    9  A    between atoms: C_6  and  C_16 
REMARK   10  A    between atoms: C_7  and  C_23 
REMARK   11  A    between atoms: C_9  and  C_17 
REMARK   12  A    between atoms: C_9  and  C_18 
REMARK   13  A    between atoms: C_14  and  C_19 
REMARK   14  A    between atoms: C_14  and  C_20 
REMARK   15  A    between atoms: C_21  and  C_22 
ROOT
HETATM    1  O   UNL     1      33.953 -16.186 -12.370  1.00  0.00    -0.776 OA
HETATM    2  H   UNL     1      34.729 -16.736 -12.196  1.00  0.00     0.167 HD
ENDROOT
BRANCH   1   3
HETATM    3  C   UNL     1      34.076 -14.905 -12.780  1.00  0.00     0.139 C 
HETATM    4  O   UNL     1      34.795 -14.634 -13.732  1.00  0.00    -0.650 OA
BRANCH   3   5
HETATM    5  C   UNL     1      33.325 -13.817 -12.067  1.00  0.00     0.113 C 
BRANCH   5   6
HETATM    6  C   UNL     1      33.202 -12.569 -12.948  1.00  0.00     0.037 C 
BRANCH   6   7
HETATM    7  C   UNL     1      33.689 -11.346 -12.209  1.00  0.00    -0.030 C 
HETATM    8  C   UNL     1      33.065 -10.706 -11.197  1.00  0.00    -0.027 C 
BRANCH   8   9
HETATM    9  C   UNL     1      31.736 -11.059 -10.564  1.00  0.00     0.053 C 
BRANCH   9  10
HETATM   10  C   UNL     1      30.742  -9.939 -10.741  1.00  0.00    -0.027 C 
HETATM   11  C   UNL     1      29.504 -10.061 -11.253  1.00  0.00    -0.027 C 
BRANCH  11  12
HETATM   12  C   UNL     1      28.862 -11.351 -11.690  1.00  0.00     0.053 C 
BRANCH  12  13
HETATM   13  C   UNL     1      28.220 -11.201 -13.047  1.00  0.00    -0.027 C 
HETATM   14  C   UNL     1      28.849 -11.206 -14.238  1.00  0.00    -0.027 C 
BRANCH  14  15
HETATM   15  C   UNL     1      30.334 -11.316 -14.456  1.00  0.00     0.053 C 
BRANCH  15  16
HETATM   16  C   UNL     1      30.786 -10.138 -15.291  1.00  0.00    -0.027 C 
HETATM   17  C   UNL     1      31.909 -10.026 -16.028  1.00  0.00    -0.027 C 
BRANCH  17  18
HETATM   18  C   UNL     1      32.982 -11.067 -16.213  1.00  0.00     0.053 C 
BRANCH  18  19
HETATM   19  C   UNL     1      32.447 -12.254 -16.980  1.00  0.00    -0.027 C 
HETATM   20  C   UNL     1      31.961 -12.267 -18.239  1.00  0.00    -0.027 C 
BRANCH  20  21
HETATM   21  C   UNL     1      31.889 -11.105 -19.198  1.00  0.00     0.053 C 
BRANCH  21  22
HETATM   22  C   UNL     1      30.676 -11.221 -20.092  1.00  0.00    -0.027 C 
HETATM   23  C   UNL     1      29.396 -10.956 -19.768  1.00  0.00    -0.031 C 
BRANCH  23  24
HETATM   24  C   UNL     1      28.886 -10.502 -18.425  1.00  0.00     0.022 C 
HETATM   25  C   UNL     1      27.996 -11.542 -17.756  1.00  0.00     0.009 C 
ENDBRANCH  23  24
ENDBRANCH  21  22
ENDBRANCH  20  21
ENDBRANCH  18  19
ENDBRANCH  17  18
ENDBRANCH  15  16
ENDBRANCH  14  15
ENDBRANCH  12  13
ENDBRANCH  11  12
ENDBRANCH   9  10
ENDBRANCH   8   9
ENDBRANCH   6   7
ENDBRANCH   5   6
ENDBRANCH   3   5
ENDBRANCH   1   3
TORSDOF 15
ENDMDL
MODEL 18
REMARK VINA RESULT:      -5.0      4.355      7.997
REMARK  15 active torsions:
REMARK  status: ('A' for Active; 'I' for Inactive)
REMARK    1  A    between atoms: O_1  and  C_23 
REMARK    2  A    between atoms: C_3  and  C_7 
REMARK    3  A    between atoms: C_3  and  C_8 
REMARK    4  A    between atoms: C_4  and  C_10 
REMARK    5  A    between atoms: C_4  and  C_11 
REMARK    6  A    between atoms: C_5  and  C_12 
REMARK    7  A    between atoms: C_5  and  C_13 
REMARK    8  A    between atoms: C_6  and  C_15 
REMARK    9  A    between atoms: C_6  and  C_16 
REMARK   10  A    between atoms: C_7  and  C_23 
REMARK   11  A    between atoms: C_9  and  C_17 
REMARK   12  A    between atoms: C_9  and  C_18 
REMARK   13  A    between atoms: C_14  and  C_19 
REMARK   14  A    between atoms: C_14  and  C_20 
REMARK   15  A    between atoms: C_21  and  C_22 
ROOT
HETATM    1  O   UNL     1      33.648 -15.356 -16.906  1.00  0.00    -0.776 OA
HETATM    2  H   UNL     1      32.689 -15.405 -16.790  1.00  0.00     0.167 HD
ENDROOT
BRANCH   1   3
HETATM    3  C   UNL     1      34.215 -14.408 -17.683  1.00  0.00     0.139 C 
HETATM    4  O   UNL     1      34.095 -14.460 -18.899  1.00  0.00    -0.650 OA
BRANCH   3   5
HETATM    5  C   UNL     1      34.990 -13.289 -17.048  1.00  0.00     0.113 C 
BRANCH   5   6
HETATM    6  C   UNL     1      34.954 -13.396 -15.520  1.00  0.00     0.037 C 
BRANCH   6   7
HETATM    7  C   UNL     1      35.062 -12.029 -14.888  1.00  0.00    -0.030 C 
HETATM    8  C   UNL     1      34.052 -11.278 -14.398  1.00  0.00    -0.027 C 
BRANCH   8   9
HETATM    9  C   UNL     1      32.578 -11.624 -14.366  1.00  0.00     0.053 C 
BRANCH   9  10
HETATM   10  C   UNL     1      32.227 -12.358 -13.097  1.00  0.00    -0.027 C 
HETATM   11  C   UNL     1      31.416 -11.902 -12.125  1.00  0.00    -0.027 C 
BRANCH  11  12
HETATM   12  C   UNL     1      30.664 -10.597 -12.154  1.00  0.00     0.053 C 
BRANCH  12  13
HETATM   13  C   UNL     1      29.200 -10.826 -12.435  1.00  0.00    -0.027 C 
HETATM   14  C   UNL     1      28.600 -10.798 -13.639  1.00  0.00    -0.027 C 
BRANCH  14  15
HETATM   15  C   UNL     1      29.263 -10.483 -14.954  1.00  0.00     0.053 C 
BRANCH  15  16
HETATM   16  C   UNL     1      29.224 -11.721 -15.821  1.00  0.00    -0.027 C 
HETATM   17  C   UNL     1      28.998 -11.797 -17.148  1.00  0.00    -0.027 C 
BRANCH  17  18
HETATM   18  C   UNL     1      28.747 -10.652 -18.095  1.00  0.00     0.053 C 
BRANCH  18  19
HETATM   19  C   UNL     1      28.844 -11.116 -19.530  1.00  0.00    -0.027 C 
HETATM   20  C   UNL     1      29.891 -10.974 -20.369  1.00  0.00    -0.027 C 
BRANCH  20  21
HETATM   21  C   UNL     1      31.235 -10.366 -20.053  1.00  0.00     0.053 C 
BRANCH  21  22
HETATM   22  C   UNL     1      32.008 -11.239 -19.092  1.00  0.00    -0.027 C 
HETATM   23  C   UNL     1      32.547 -10.875 -17.913  1.00  0.00    -0.031 C 
BRANCH  23  24
HETATM   24  C   UNL     1      32.512  -9.500 -17.297  1.00  0.00     0.022 C 
HETATM   25  C   UNL     1      33.634  -8.605 -17.807  1.00  0.00     0.009 C 
ENDBRANCH  23  24
ENDBRANCH  21  22
ENDBRANCH  20  21
ENDBRANCH  18  19
ENDBRANCH  17  18
ENDBRANCH  15  16
ENDBRANCH  14  15
ENDBRANCH  12  13
ENDBRANCH  11  12
ENDBRANCH   9  10
ENDBRANCH   8   9
ENDBRANCH   6   7
ENDBRANCH   5   6
ENDBRANCH   3   5
ENDBRANCH   1   3
TORSDOF 15
ENDMDL
MODEL 19
REMARK VINA RESULT:      -5.0      2.654      6.102
REMARK  15 active torsions:
REMARK  status: ('A' for Active; 'I' for Inactive)
REMARK    1  A    between atoms: O_1  and  C_23 
REMARK    2  A    between atoms: C_3  and  C_7 
REMARK    3  A    between atoms: C_3  and  C_8 
REMARK    4  A    between atoms: C_4  and  C_10 
REMARK    5  A    between atoms: C_4  and  C_11 
REMARK    6  A    between atoms: C_5  and  C_12 
REMARK    7  A    between atoms: C_5  and  C_13 
REMARK    8  A    between atoms: C_6  and  C_15 
REMARK    9  A    between atoms: C_6  and  C_16 
REMARK   10  A    between atoms: C_7  and  C_23 
REMARK   11  A    between atoms: C_9  and  C_17 
REMARK   12  A    between atoms: C_9  and  C_18 
REMARK   13  A    between atoms: C_14  and  C_19 
REMARK   14  A    between atoms: C_14  and  C_20 
REMARK   15  A    between atoms: C_21  and  C_22 
ROOT
HETATM    1  O   UNL     1      32.474  -9.791  -4.137  1.00  0.00    -0.776 OA
HETATM    2  H   UNL     1      31.725  -9.816  -4.749  1.00  0.00     0.167 HD
ENDROOT
BRANCH   1   3
HETATM    3  C   UNL     1      33.553  -9.015  -4.376  1.00  0.00     0.139 C 
HETATM    4  O   UNL     1      34.438  -8.922  -3.538  1.00  0.00    -0.650 OA
BRANCH   3   5
HETATM    5  C   UNL     1      33.663  -8.270  -5.676  1.00  0.00     0.113 C 
BRANCH   5   6
HETATM    6  C   UNL     1      32.751  -8.891  -6.741  1.00  0.00     0.037 C 
BRANCH   6   7
HETATM    7  C   UNL     1      33.260  -8.575  -8.127  1.00  0.00    -0.030 C 
HETATM    8  C   UNL     1      34.063  -9.346  -8.892  1.00  0.00    -0.027 C 
BRANCH   8   9
HETATM    9  C   UNL     1      34.641 -10.701  -8.546  1.00  0.00     0.053 C 
BRANCH   9  10
HETATM   10  C   UNL     1      33.884 -11.802  -9.245  1.00  0.00    -0.027 C 
HETATM   11  C   UNL     1      32.951 -12.593  -8.684  1.00  0.00    -0.027 C 
BRANCH  11  12
HETATM   12  C   UNL     1      32.451 -12.484  -7.267  1.00  0.00     0.053 C 
BRANCH  12  13
HETATM   13  C   UNL     1      30.956 -12.674  -7.208  1.00  0.00    -0.027 C 
HETATM   14  C   UNL     1      30.026 -11.926  -7.831  1.00  0.00    -0.027 C 
BRANCH  14  15
HETATM   15  C   UNL     1      30.288 -10.710  -8.678  1.00  0.00     0.053 C 
BRANCH  15  16
HETATM   16  C   UNL     1      29.454 -10.811  -9.936  1.00  0.00    -0.027 C 
HETATM   17  C   UNL     1      29.884 -10.888 -11.212  1.00  0.00    -0.027 C 
BRANCH  17  18
HETATM   18  C   UNL     1      31.312 -10.911 -11.690  1.00  0.00     0.053 C 
BRANCH  18  19
HETATM   19  C   UNL     1      31.905  -9.522 -11.666  1.00  0.00    -0.027 C 
HETATM   20  C   UNL     1      32.815  -9.003 -12.515  1.00  0.00    -0.027 C 
BRANCH  20  21
HETATM   21  C   UNL     1      33.416  -9.673 -13.725  1.00  0.00     0.053 C 
BRANCH  21  22
HETATM   22  C   UNL     1      32.771  -9.168 -14.995  1.00  0.00    -0.027 C 
HETATM   23  C   UNL     1      31.744  -9.727 -15.665  1.00  0.00    -0.031 C 
BRANCH  23  24
HETATM   24  C   UNL     1      31.021 -10.997 -15.302  1.00  0.00     0.022 C 
HETATM   25  C   UNL     1      29.543 -10.765 -15.013  1.00  0.00     0.009 C 
ENDBRANCH  23  24
ENDBRANCH  21  22
ENDBRANCH  20  21
ENDBRANCH  18  19
ENDBRANCH  17  18
ENDBRANCH  15  16
ENDBRANCH  14  15
ENDBRANCH  12  13
ENDBRANCH  11  12
ENDBRANCH   9  10
ENDBRANCH   8   9
ENDBRANCH   6   7
ENDBRANCH   5   6
ENDBRANCH   3   5
ENDBRANCH   1   3
TORSDOF 15
ENDMDL
MODEL 20
REMARK VINA RESULT:      -5.0      2.888      5.871
REMARK  15 active torsions:
REMARK  status: ('A' for Active; 'I' for Inactive)
REMARK    1  A    between atoms: O_1  and  C_23 
REMARK    2  A    between atoms: C_3  and  C_7 
REMARK    3  A    between atoms: C_3  and  C_8 
REMARK    4  A    between atoms: C_4  and  C_10 
REMARK    5  A    between atoms: C_4  and  C_11 
REMARK    6  A    between atoms: C_5  and  C_12 
REMARK    7  A    between atoms: C_5  and  C_13 
REMARK    8  A    between atoms: C_6  and  C_15 
REMARK    9  A    between atoms: C_6  and  C_16 
REMARK   10  A    between atoms: C_7  and  C_23 
REMARK   11  A    between atoms: C_9  and  C_17 
REMARK   12  A    between atoms: C_9  and  C_18 
REMARK   13  A    between atoms: C_14  and  C_19 
REMARK   14  A    between atoms: C_14  and  C_20 
REMARK   15  A    between atoms: C_21  and  C_22 
ROOT
HETATM    1  O   UNL     1      36.154 -13.984  -6.614  1.00  0.00    -0.776 OA
HETATM    2  H   UNL     1      36.864 -13.336  -6.718  1.00  0.00     0.167 HD
ENDROOT
BRANCH   1   3
HETATM    3  C   UNL     1      35.487 -14.475  -7.680  1.00  0.00     0.139 C 
HETATM    4  O   UNL     1      36.095 -14.778  -8.696  1.00  0.00    -0.650 OA
BRANCH   3   5
HETATM    5  C   UNL     1      33.996 -14.651  -7.611  1.00  0.00     0.113 C 
BRANCH   5   6
HETATM    6  C   UNL     1      33.286 -13.293  -7.571  1.00  0.00     0.037 C 
BRANCH   6   7
HETATM    7  C   UNL     1      33.426 -12.580  -8.894  1.00  0.00    -0.030 C 
HETATM    8  C   UNL     1      33.703 -11.273  -9.087  1.00  0.00    -0.027 C 
BRANCH   8   9
HETATM    9  C   UNL     1      33.939 -10.215  -8.030  1.00  0.00     0.053 C 
BRANCH   9  10
HETATM   10  C   UNL     1      32.753  -9.290  -7.922  1.00  0.00    -0.027 C 
HETATM   11  C   UNL     1      32.125  -8.947  -6.783  1.00  0.00    -0.027 C 
BRANCH  11  12
HETATM   12  C   UNL     1      32.530  -9.379  -5.398  1.00  0.00     0.053 C 
BRANCH  12  13
HETATM   13  C   UNL     1      32.236 -10.843  -5.184  1.00  0.00    -0.027 C 
HETATM   14  C   UNL     1      31.026 -11.399  -4.988  1.00  0.00    -0.027 C 
BRANCH  14  15
HETATM   15  C   UNL     1      29.716 -10.663  -4.893  1.00  0.00     0.053 C 
BRANCH  15  16
HETATM   16  C   UNL     1      28.659 -11.466  -5.618  1.00  0.00    -0.027 C 
HETATM   17  C   UNL     1      28.313 -11.397  -6.919  1.00  0.00    -0.027 C 
BRANCH  17  18
HETATM   18  C   UNL     1      28.917 -10.509  -7.975  1.00  0.00     0.053 C 
BRANCH  18  19
HETATM   19  C   UNL     1      29.926 -11.271  -8.801  1.00  0.00    -0.027 C 
HETATM   20  C   UNL     1      30.114 -11.203 -10.135  1.00  0.00    -0.027 C 
BRANCH  20  21
HETATM   21  C   UNL     1      29.396 -10.303 -11.110  1.00  0.00     0.053 C 
BRANCH  21  22
HETATM   22  C   UNL     1      29.251 -10.976 -12.455  1.00  0.00    -0.027 C 
HETATM   23  C   UNL     1      30.239 -11.434 -13.248  1.00  0.00    -0.031 C 
BRANCH  23  24
HETATM   24  C   UNL     1      31.718 -11.359 -12.973  1.00  0.00     0.022 C 
HETATM   25  C   UNL     1      32.331 -12.727 -12.700  1.00  0.00     0.009 C 
ENDBRANCH  23  24
ENDBRANCH  21  22
ENDBRANCH  20  21
ENDBRANCH  18  19
ENDBRANCH  17  18
ENDBRANCH  15  16
ENDBRANCH  14  15
ENDBRANCH  12  13
ENDBRANCH  11  12
ENDBRANCH   9  10
ENDBRANCH   8   9
ENDBRANCH   6   7
ENDBRANCH   5   6
ENDBRANCH   3   5
ENDBRANCH   1   3
TORSDOF 15
ENDMDL
