MODEL 1
REMARK VINA RESULT:      -5.6      0.000      0.000
REMARK  15 active torsions:
REMARK  status: ('A' for Active; 'I' for Inactive)
REMARK    1  A    between atoms: O_1  and  C_23 
REMARK    2  A    between atoms: C_3  and  C_7 
REMARK    3  A    between atoms: C_3  and  C_8 
REMARK    4  A    between atoms: C_4  and  C_10 
REMARK    5  A    between atoms: C_4  and  C_11 
REMARK    6  A    between atoms: C_5  and  C_12 
REMARK    7  A    between atoms: C_5  and  C_13 
REMARK    8  A    between atoms: C_6  and  C_15 
REMARK    9  A    between atoms: C_6  and  C_16 
REMARK   10  A    between atoms: C_7  and  C_23 
REMARK   11  A    between atoms: C_9  and  C_17 
REMARK   12  A    between atoms: C_9  and  C_18 
REMARK   13  A    between atoms: C_14  and  C_19 
REMARK   14  A    between atoms: C_14  and  C_20 
REMARK   15  A    between atoms: C_21  and  C_22 
ROOT
HETATM    1  O   UNL     1      33.890 -16.177 -12.494  1.00  0.00    -0.776 OA
HETATM    2  H   UNL     1      34.105 -16.904 -11.894  1.00  0.00     0.167 HD
ENDROOT
BRANCH   1   3
HETATM    3  C   UNL     1      33.941 -14.891 -12.087  1.00  0.00     0.139 C 
HETATM    4  O   UNL     1      34.206 -14.627 -10.923  1.00  0.00    -0.650 OA
BRANCH   3   5
HETATM    5  C   UNL     1      33.674 -13.786 -13.069  1.00  0.00     0.113 C 
BRANCH   5   6
HETATM    6  C   UNL     1      32.433 -12.983 -12.666  1.00  0.00     0.037 C 
BRANCH   6   7
HETATM    7  C   UNL     1      32.182 -11.862 -13.646  1.00  0.00    -0.030 C 
HETATM    8  C   UNL     1      31.935 -10.567 -13.354  1.00  0.00    -0.027 C 
BRANCH   8   9
HETATM    9  C   UNL     1      31.851  -9.932 -11.982  1.00  0.00     0.053 C 
BRANCH   9  10
HETATM   10  C   UNL     1      32.767  -8.738 -11.886  1.00  0.00    -0.027 C 
HETATM   11  C   UNL     1      33.445  -8.354 -10.790  1.00  0.00    -0.027 C 
BRANCH  11  12
HETATM   12  C   UNL     1      33.459  -9.083  -9.471  1.00  0.00     0.053 C 
BRANCH  12  13
HETATM   13  C   UNL     1      34.337 -10.308  -9.542  1.00  0.00    -0.027 C 
HETATM   14  C   UNL     1      33.939 -11.588  -9.423  1.00  0.00    -0.027 C 
BRANCH  14  15
HETATM   15  C   UNL     1      32.537 -12.059  -9.144  1.00  0.00     0.053 C 
BRANCH  15  16
HETATM   16  C   UNL     1      32.549 -12.880  -7.873  1.00  0.00    -0.027 C 
HETATM   17  C   UNL     1      32.446 -12.441  -6.602  1.00  0.00    -0.027 C 
BRANCH  17  18
HETATM   18  C   UNL     1      32.272 -11.017  -6.143  1.00  0.00     0.053 C 
BRANCH  18  19
HETATM   19  C   UNL     1      31.194 -10.925  -5.089  1.00  0.00    -0.027 C 
HETATM   20  C   UNL     1      29.919 -10.515  -5.252  1.00  0.00    -0.027 C 
BRANCH  20  21
HETATM   21  C   UNL     1      29.254 -10.103  -6.542  1.00  0.00     0.053 C 
BRANCH  21  22
HETATM   22  C   UNL     1      28.517 -11.267  -7.162  1.00  0.00    -0.027 C 
HETATM   23  C   UNL     1      28.518 -11.635  -8.458  1.00  0.00    -0.031 C 
BRANCH  23  24
HETATM   24  C   UNL     1      29.245 -10.949  -9.585  1.00  0.00     0.022 C 
HETATM   25  C   UNL     1      28.782 -11.428 -10.955  1.00  0.00     0.009 C 
ENDBRANCH  23  24
ENDBRANCH  21  22
ENDBRANCH  20  21
ENDBRANCH  18  19
ENDBRANCH  17  18
ENDBRANCH  15  16
ENDBRANCH  14  15
ENDBRANCH  12  13
ENDBRANCH  11  12
ENDBRANCH   9  10
ENDBRANCH   8   9
ENDBRANCH   6   7
ENDBRANCH   5   6
ENDBRANCH   3   5
ENDBRANCH   1   3
TORSDOF 15
ENDMDL
MODEL 2
REMARK VINA RESULT:      -5.5      1.919      4.867
REMARK  15 active torsions:
REMARK  status: ('A' for Active; 'I' for Inactive)
REMARK    1  A    between atoms: O_1  and  C_23 
REMARK    2  A    between atoms: C_3  and  C_7 
REMARK    3  A    between atoms: C_3  and  C_8 
REMARK    4  A    between atoms: C_4  and  C_10 
REMARK    5  A    between atoms: C_4  and  C_11 
REMARK    6  A    between atoms: C_5  and  C_12 
REMARK    7  A    between atoms: C_5  and  C_13 
REMARK    8  A    between atoms: C_6  and  C_15 
REMARK    9  A    between atoms: C_6  and  C_16 
REMARK   10  A    between atoms: C_7  and  C_23 
REMARK   11  A    between atoms: C_9  and  C_17 
REMARK   12  A    between atoms: C_9  and  C_18 
REMARK   13  A    between atoms: C_14  and  C_19 
REMARK   14  A    between atoms: C_14  and  C_20 
REMARK   15  A    between atoms: C_21  and  C_22 
ROOT
HETATM    1  O   UNL     1      34.720 -13.866 -12.878  1.00  0.00    -0.776 OA
HETATM    2  H   UNL     1      34.673 -14.809 -13.089  1.00  0.00     0.167 HD
ENDROOT
BRANCH   1   3
HETATM    3  C   UNL     1      33.695 -13.227 -12.276  1.00  0.00     0.139 C 
HETATM    4  O   UNL     1      32.565 -13.315 -12.734  1.00  0.00    -0.650 OA
BRANCH   3   5
HETATM    5  C   UNL     1      33.947 -12.411 -11.040  1.00  0.00     0.113 C 
BRANCH   5   6
HETATM    6  C   UNL     1      32.710 -11.587 -10.666  1.00  0.00     0.037 C 
BRANCH   6   7
HETATM    7  C   UNL     1      33.097 -10.398  -9.820  1.00  0.00    -0.030 C 
HETATM    8  C   UNL     1      33.042  -9.096 -10.175  1.00  0.00    -0.027 C 
BRANCH   8   9
HETATM    9  C   UNL     1      32.582  -8.520 -11.497  1.00  0.00     0.053 C 
BRANCH   9  10
HETATM   10  C   UNL     1      33.730  -8.422 -12.469  1.00  0.00    -0.027 C 
HETATM   11  C   UNL     1      33.832  -9.085 -13.634  1.00  0.00    -0.027 C 
BRANCH  11  12
HETATM   12  C   UNL     1      32.788 -10.006 -14.210  1.00  0.00     0.053 C 
BRANCH  12  13
HETATM   13  C   UNL     1      32.110  -9.374 -15.399  1.00  0.00    -0.027 C 
HETATM   14  C   UNL     1      31.100  -9.896 -16.120  1.00  0.00    -0.027 C 
BRANCH  14  15
HETATM   15  C   UNL     1      30.470 -11.248 -15.914  1.00  0.00     0.053 C 
BRANCH  15  16
HETATM   16  C   UNL     1      29.093 -11.052 -15.320  1.00  0.00    -0.027 C 
HETATM   17  C   UNL     1      28.726 -11.153 -14.027  1.00  0.00    -0.027 C 
BRANCH  17  18
HETATM   18  C   UNL     1      29.613 -11.469 -12.851  1.00  0.00     0.053 C 
BRANCH  18  19
HETATM   19  C   UNL     1      29.661 -10.305 -11.890  1.00  0.00    -0.027 C 
HETATM   20  C   UNL     1      29.265 -10.287 -10.601  1.00  0.00    -0.027 C 
BRANCH  20  21
HETATM   21  C   UNL     1      28.730 -11.447  -9.798  1.00  0.00     0.053 C 
BRANCH  21  22
HETATM   22  C   UNL     1      28.568 -11.065  -8.345  1.00  0.00    -0.027 C 
HETATM   23  C   UNL     1      29.448 -11.269  -7.345  1.00  0.00    -0.031 C 
BRANCH  23  24
HETATM   24  C   UNL     1      30.790 -11.946  -7.455  1.00  0.00     0.022 C 
HETATM   25  C   UNL     1      31.812 -11.375  -6.481  1.00  0.00     0.009 C 
ENDBRANCH  23  24
ENDBRANCH  21  22
ENDBRANCH  20  21
ENDBRANCH  18  19
ENDBRANCH  17  18
ENDBRANCH  15  16
ENDBRANCH  14  15
ENDBRANCH  12  13
ENDBRANCH  11  12
ENDBRANCH   9  10
ENDBRANCH   8   9
ENDBRANCH   6   7
ENDBRANCH   5   6
ENDBRANCH   3   5
ENDBRANCH   1   3
TORSDOF 15
ENDMDL
MODEL 3
REMARK VINA RESULT:      -5.5      3.877      6.162
REMARK  15 active torsions:
REMARK  status: ('A' for Active; 'I' for Inactive)
REMARK    1  A    between atoms: O_1  and  C_23 
REMARK    2  A    between atoms: C_3  and  C_7 
REMARK    3  A    between atoms: C_3  and  C_8 
REMARK    4  A    between atoms: C_4  and  C_10 
REMARK    5  A    between atoms: C_4  and  C_11 
REMARK    6  A    between atoms: C_5  and  C_12 
REMARK    7  A    between atoms: C_5  and  C_13 
REMARK    8  A    between atoms: C_6  and  C_15 
REMARK    9  A    between atoms: C_6  and  C_16 
REMARK   10  A    between atoms: C_7  and  C_23 
REMARK   11  A    between atoms: C_9  and  C_17 
REMARK   12  A    between atoms: C_9  and  C_18 
REMARK   13  A    between atoms: C_14  and  C_19 
REMARK   14  A    between atoms: C_14  and  C_20 
REMARK   15  A    between atoms: C_21  and  C_22 
ROOT
HETATM    1  O   UNL     1      35.675  -6.064 -12.496  1.00  0.00    -0.776 OA
HETATM    2  H   UNL     1      36.561  -6.214 -12.136  1.00  0.00     0.167 HD
ENDROOT
BRANCH   1   3
HETATM    3  C   UNL     1      34.611  -5.870 -11.688  1.00  0.00     0.139 C 
HETATM    4  O   UNL     1      34.507  -4.832 -11.050  1.00  0.00    -0.650 OA
BRANCH   3   5
HETATM    5  C   UNL     1      33.554  -6.932 -11.580  1.00  0.00     0.113 C 
BRANCH   5   6
HETATM    6  C   UNL     1      34.087  -8.286 -12.062  1.00  0.00     0.037 C 
BRANCH   6   7
HETATM    7  C   UNL     1      33.767  -8.494 -13.523  1.00  0.00    -0.030 C 
HETATM    8  C   UNL     1      34.093  -9.563 -14.282  1.00  0.00    -0.027 C 
BRANCH   8   9
HETATM    9  C   UNL     1      34.853 -10.800 -13.853  1.00  0.00     0.053 C 
BRANCH   9  10
HETATM   10  C   UNL     1      35.440 -11.509 -15.047  1.00  0.00    -0.027 C 
HETATM   11  C   UNL     1      35.089 -12.731 -15.486  1.00  0.00    -0.027 C 
BRANCH  11  12
HETATM   12  C   UNL     1      34.002 -13.592 -14.898  1.00  0.00     0.053 C 
BRANCH  12  13
HETATM   13  C   UNL     1      34.541 -14.454 -13.783  1.00  0.00    -0.027 C 
HETATM   14  C   UNL     1      34.119 -14.469 -12.505  1.00  0.00    -0.027 C 
BRANCH  14  15
HETATM   15  C   UNL     1      33.051 -13.589 -11.912  1.00  0.00     0.053 C 
BRANCH  15  16
HETATM   16  C   UNL     1      33.718 -12.517 -11.080  1.00  0.00    -0.027 C 
HETATM   17  C   UNL     1      33.130 -11.583 -10.305  1.00  0.00    -0.027 C 
BRANCH  17  18
HETATM   18  C   UNL     1      31.655 -11.396 -10.068  1.00  0.00     0.053 C 
BRANCH  18  19
HETATM   19  C   UNL     1      31.154 -10.158 -10.773  1.00  0.00    -0.027 C 
HETATM   20  C   UNL     1      30.516 -10.090 -11.960  1.00  0.00    -0.027 C 
BRANCH  20  21
HETATM   21  C   UNL     1      30.103 -11.246 -12.838  1.00  0.00     0.053 C 
BRANCH  21  22
HETATM   22  C   UNL     1      31.073 -11.426 -13.982  1.00  0.00    -0.027 C 
HETATM   23  C   UNL     1      30.888 -11.079 -15.270  1.00  0.00    -0.031 C 
BRANCH  23  24
HETATM   24  C   UNL     1      29.654 -10.448 -15.861  1.00  0.00     0.022 C 
HETATM   25  C   UNL     1      28.680 -11.479 -16.417  1.00  0.00     0.009 C 
ENDBRANCH  23  24
ENDBRANCH  21  22
ENDBRANCH  20  21
ENDBRANCH  18  19
ENDBRANCH  17  18
ENDBRANCH  15  16
ENDBRANCH  14  15
ENDBRANCH  12  13
ENDBRANCH  11  12
ENDBRANCH   9  10
ENDBRANCH   8   9
ENDBRANCH   6   7
ENDBRANCH   5   6
ENDBRANCH   3   5
ENDBRANCH   1   3
TORSDOF 15
ENDMDL
MODEL 4
REMARK VINA RESULT:      -5.4      4.091      5.873
REMARK  15 active torsions:
REMARK  status: ('A' for Active; 'I' for Inactive)
REMARK    1  A    between atoms: O_1  and  C_23 
REMARK    2  A    between atoms: C_3  and  C_7 
REMARK    3  A    between atoms: C_3  and  C_8 
REMARK    4  A    between atoms: C_4  and  C_10 
REMARK    5  A    between atoms: C_4  and  C_11 
REMARK    6  A    between atoms: C_5  and  C_12 
REMARK    7  A    between atoms: C_5  and  C_13 
REMARK    8  A    between atoms: C_6  and  C_15 
REMARK    9  A    between atoms: C_6  and  C_16 
REMARK   10  A    between atoms: C_7  and  C_23 
REMARK   11  A    between atoms: C_9  and  C_17 
REMARK   12  A    between atoms: C_9  and  C_18 
REMARK   13  A    between atoms: C_14  and  C_19 
REMARK   14  A    between atoms: C_14  and  C_20 
REMARK   15  A    between atoms: C_21  and  C_22 
ROOT
HETATM    1  O   UNL     1      35.490  -6.300 -17.253  1.00  0.00    -0.776 OA
HETATM    2  H   UNL     1      35.577  -7.243 -17.449  1.00  0.00     0.167 HD
ENDROOT
BRANCH   1   3
HETATM    3  C   UNL     1      34.507  -5.836 -16.451  1.00  0.00     0.139 C 
HETATM    4  O   UNL     1      34.550  -4.689 -16.030  1.00  0.00    -0.650 OA
BRANCH   3   5
HETATM    5  C   UNL     1      33.360  -6.733 -16.081  1.00  0.00     0.113 C 
BRANCH   5   6
HETATM    6  C   UNL     1      33.792  -8.204 -16.086  1.00  0.00     0.037 C 
BRANCH   6   7
HETATM    7  C   UNL     1      33.101  -8.958 -17.197  1.00  0.00    -0.030 C 
HETATM    8  C   UNL     1      31.909  -9.588 -17.131  1.00  0.00    -0.027 C 
BRANCH   8   9
HETATM    9  C   UNL     1      30.985  -9.690 -15.936  1.00  0.00     0.053 C 
BRANCH   9  10
HETATM   10  C   UNL     1      30.052 -10.866 -16.078  1.00  0.00    -0.027 C 
HETATM   11  C   UNL     1      29.248 -11.351 -15.114  1.00  0.00    -0.027 C 
BRANCH  11  12
HETATM   12  C   UNL     1      29.089 -10.771 -13.733  1.00  0.00     0.053 C 
BRANCH  12  13
HETATM   13  C   UNL     1      29.794 -11.623 -12.707  1.00  0.00    -0.027 C 
HETATM   14  C   UNL     1      30.466 -11.187 -11.626  1.00  0.00    -0.027 C 
BRANCH  14  15
HETATM   15  C   UNL     1      30.695  -9.748 -11.245  1.00  0.00     0.053 C 
BRANCH  15  16
HETATM   16  C   UNL     1      31.974  -9.275 -11.901  1.00  0.00    -0.027 C 
HETATM   17  C   UNL     1      33.235  -9.387 -11.437  1.00  0.00    -0.027 C 
BRANCH  17  18
HETATM   18  C   UNL     1      33.675 -10.035 -10.150  1.00  0.00     0.053 C 
BRANCH  18  19
HETATM   19  C   UNL     1      33.356  -9.147  -8.970  1.00  0.00    -0.027 C 
HETATM   20  C   UNL     1      32.486  -9.394  -7.969  1.00  0.00    -0.027 C 
BRANCH  20  21
HETATM   21  C   UNL     1      31.665 -10.643  -7.764  1.00  0.00     0.053 C 
BRANCH  21  22
HETATM   22  C   UNL     1      30.780 -10.511  -6.546  1.00  0.00    -0.027 C 
HETATM   23  C   UNL     1      29.444 -10.337  -6.525  1.00  0.00    -0.031 C 
BRANCH  23  24
HETATM   24  C   UNL     1      28.536 -10.215  -7.721  1.00  0.00     0.022 C 
HETATM   25  C   UNL     1      28.069 -11.570  -8.238  1.00  0.00     0.009 C 
ENDBRANCH  23  24
ENDBRANCH  21  22
ENDBRANCH  20  21
ENDBRANCH  18  19
ENDBRANCH  17  18
ENDBRANCH  15  16
ENDBRANCH  14  15
ENDBRANCH  12  13
ENDBRANCH  11  12
ENDBRANCH   9  10
ENDBRANCH   8   9
ENDBRANCH   6   7
ENDBRANCH   5   6
ENDBRANCH   3   5
ENDBRANCH   1   3
TORSDOF 15
ENDMDL
MODEL 5
REMARK VINA RESULT:      -5.4      2.611      5.580
REMARK  15 active torsions:
REMARK  status: ('A' for Active; 'I' for Inactive)
REMARK    1  A    between atoms: O_1  and  C_23 
REMARK    2  A    between atoms: C_3  and  C_7 
REMARK    3  A    between atoms: C_3  and  C_8 
REMARK    4  A    between atoms: C_4  and  C_10 
REMARK    5  A    between atoms: C_4  and  C_11 
REMARK    6  A    between atoms: C_5  and  C_12 
REMARK    7  A    between atoms: C_5  and  C_13 
REMARK    8  A    between atoms: C_6  and  C_15 
REMARK    9  A    between atoms: C_6  and  C_16 
REMARK   10  A    between atoms: C_7  and  C_23 
REMARK   11  A    between atoms: C_9  and  C_17 
REMARK   12  A    between atoms: C_9  and  C_18 
REMARK   13  A    between atoms: C_14  and  C_19 
REMARK   14  A    between atoms: C_14  and  C_20 
REMARK   15  A    between atoms: C_21  and  C_22 
ROOT
HETATM    1  O   UNL     1      35.592 -13.637 -12.269  1.00  0.00    -0.776 OA
HETATM    2  H   UNL     1      36.317 -14.276 -12.245  1.00  0.00     0.167 HD
ENDROOT
BRANCH   1   3
HETATM    3  C   UNL     1      34.411 -13.935 -12.854  1.00  0.00     0.139 C 
HETATM    4  O   UNL     1      34.302 -14.946 -13.533  1.00  0.00    -0.650 OA
BRANCH   3   5
HETATM    5  C   UNL     1      33.234 -13.022 -12.664  1.00  0.00     0.113 C 
BRANCH   5   6
HETATM    6  C   UNL     1      32.970 -12.197 -13.929  1.00  0.00     0.037 C 
BRANCH   6   7
HETATM    7  C   UNL     1      34.039 -11.146 -14.110  1.00  0.00    -0.030 C 
HETATM    8  C   UNL     1      33.868  -9.882 -14.551  1.00  0.00    -0.027 C 
BRANCH   8   9
HETATM    9  C   UNL     1      32.572  -9.218 -14.967  1.00  0.00     0.053 C 
BRANCH   9  10
HETATM   10  C   UNL     1      32.633  -8.778 -16.408  1.00  0.00    -0.027 C 
HETATM   11  C   UNL     1      32.389  -9.556 -17.478  1.00  0.00    -0.027 C 
BRANCH  11  12
HETATM   12  C   UNL     1      31.954 -10.998 -17.429  1.00  0.00     0.053 C 
BRANCH  12  13
HETATM   13  C   UNL     1      30.456 -11.112 -17.564  1.00  0.00    -0.027 C 
HETATM   14  C   UNL     1      29.567 -11.238 -16.561  1.00  0.00    -0.027 C 
BRANCH  14  15
HETATM   15  C   UNL     1      29.893 -11.339 -15.094  1.00  0.00     0.053 C 
BRANCH  15  16
HETATM   16  C   UNL     1      28.887 -10.516 -14.320  1.00  0.00    -0.027 C 
HETATM   17  C   UNL     1      28.389 -10.758 -13.091  1.00  0.00    -0.027 C 
BRANCH  17  18
HETATM   18  C   UNL     1      28.734 -11.906 -12.180  1.00  0.00     0.053 C 
BRANCH  18  19
HETATM   19  C   UNL     1      28.784 -11.448 -10.741  1.00  0.00    -0.027 C 
HETATM   20  C   UNL     1      29.853 -10.977 -10.066  1.00  0.00    -0.027 C 
BRANCH  20  21
HETATM   21  C   UNL     1      31.241 -10.744 -10.608  1.00  0.00     0.053 C 
BRANCH  21  22
HETATM   22  C   UNL     1      31.337  -9.393 -11.277  1.00  0.00    -0.027 C 
HETATM   23  C   UNL     1      32.413  -8.584 -11.328  1.00  0.00    -0.031 C 
BRANCH  23  24
HETATM   24  C   UNL     1      33.762  -8.843 -10.708  1.00  0.00     0.022 C 
HETATM   25  C   UNL     1      33.726  -8.779  -9.186  1.00  0.00     0.009 C 
ENDBRANCH  23  24
ENDBRANCH  21  22
ENDBRANCH  20  21
ENDBRANCH  18  19
ENDBRANCH  17  18
ENDBRANCH  15  16
ENDBRANCH  14  15
ENDBRANCH  12  13
ENDBRANCH  11  12
ENDBRANCH   9  10
ENDBRANCH   8   9
ENDBRANCH   6   7
ENDBRANCH   5   6
ENDBRANCH   3   5
ENDBRANCH   1   3
TORSDOF 15
ENDMDL
MODEL 6
REMARK VINA RESULT:      -5.3      3.291      6.878
REMARK  15 active torsions:
REMARK  status: ('A' for Active; 'I' for Inactive)
REMARK    1  A    between atoms: O_1  and  C_23 
REMARK    2  A    between atoms: C_3  and  C_7 
REMARK    3  A    between atoms: C_3  and  C_8 
REMARK    4  A    between atoms: C_4  and  C_10 
REMARK    5  A    between atoms: C_4  and  C_11 
REMARK    6  A    between atoms: C_5  and  C_12 
REMARK    7  A    between atoms: C_5  and  C_13 
REMARK    8  A    between atoms: C_6  and  C_15 
REMARK    9  A    between atoms: C_6  and  C_16 
REMARK   10  A    between atoms: C_7  and  C_23 
REMARK   11  A    between atoms: C_9  and  C_17 
REMARK   12  A    between atoms: C_9  and  C_18 
REMARK   13  A    between atoms: C_14  and  C_19 
REMARK   14  A    between atoms: C_14  and  C_20 
REMARK   15  A    between atoms: C_21  and  C_22 
ROOT
HETATM    1  O   UNL     1      33.649 -15.289 -12.349  1.00  0.00    -0.776 OA
HETATM    2  H   UNL     1      34.363 -15.933 -12.242  1.00  0.00     0.167 HD
ENDROOT
BRANCH   1   3
HETATM    3  C   UNL     1      33.905 -14.001 -12.661  1.00  0.00     0.139 C 
HETATM    4  O   UNL     1      34.032 -13.169 -11.774  1.00  0.00    -0.650 OA
BRANCH   3   5
HETATM    5  C   UNL     1      34.037 -13.594 -14.101  1.00  0.00     0.113 C 
BRANCH   5   6
HETATM    6  C   UNL     1      32.998 -12.527 -14.466  1.00  0.00     0.037 C 
BRANCH   6   7
HETATM    7  C   UNL     1      33.566 -11.552 -15.469  1.00  0.00    -0.030 C 
HETATM    8  C   UNL     1      33.493 -10.204 -15.422  1.00  0.00    -0.027 C 
BRANCH   8   9
HETATM    9  C   UNL     1      32.829  -9.354 -14.360  1.00  0.00     0.053 C 
BRANCH   9  10
HETATM   10  C   UNL     1      33.714  -9.224 -13.146  1.00  0.00    -0.027 C 
HETATM   11  C   UNL     1      33.292  -9.013 -11.886  1.00  0.00    -0.027 C 
BRANCH  11  12
HETATM   12  C   UNL     1      31.853  -8.924 -11.449  1.00  0.00     0.053 C 
BRANCH  12  13
HETATM   13  C   UNL     1      31.550  -9.949 -10.384  1.00  0.00    -0.027 C 
HETATM   14  C   UNL     1      31.118 -11.208 -10.582  1.00  0.00    -0.027 C 
BRANCH  14  15
HETATM   15  C   UNL     1      30.801 -11.839 -11.912  1.00  0.00     0.053 C 
BRANCH  15  16
HETATM   16  C   UNL     1      29.378 -11.487 -12.284  1.00  0.00    -0.027 C 
HETATM   17  C   UNL     1      28.904 -11.119 -13.492  1.00  0.00    -0.027 C 
BRANCH  17  18
HETATM   18  C   UNL     1      29.684 -10.988 -14.773  1.00  0.00     0.053 C 
BRANCH  18  19
HETATM   19  C   UNL     1      28.788 -11.218 -15.968  1.00  0.00    -0.027 C 
HETATM   20  C   UNL     1      29.163 -11.512 -17.230  1.00  0.00    -0.027 C 
BRANCH  20  21
HETATM   21  C   UNL     1      30.567 -11.735 -17.734  1.00  0.00     0.053 C 
BRANCH  21  22
HETATM   22  C   UNL     1      30.707 -11.263 -19.163  1.00  0.00    -0.027 C 
HETATM   23  C   UNL     1      31.748 -10.599 -19.703  1.00  0.00    -0.031 C 
BRANCH  23  24
HETATM   24  C   UNL     1      33.002 -10.164 -18.991  1.00  0.00     0.022 C 
HETATM   25  C   UNL     1      33.572  -8.868 -19.554  1.00  0.00     0.009 C 
ENDBRANCH  23  24
ENDBRANCH  21  22
ENDBRANCH  20  21
ENDBRANCH  18  19
ENDBRANCH  17  18
ENDBRANCH  15  16
ENDBRANCH  14  15
ENDBRANCH  12  13
ENDBRANCH  11  12
ENDBRANCH   9  10
ENDBRANCH   8   9
ENDBRANCH   6   7
ENDBRANCH   5   6
ENDBRANCH   3   5
ENDBRANCH   1   3
TORSDOF 15
ENDMDL
MODEL 7
REMARK VINA RESULT:      -5.2      2.139      5.251
REMARK  15 active torsions:
REMARK  status: ('A' for Active; 'I' for Inactive)
REMARK    1  A    between atoms: O_1  and  C_23 
REMARK    2  A    between atoms: C_3  and  C_7 
REMARK    3  A    between atoms: C_3  and  C_8 
REMARK    4  A    between atoms: C_4  and  C_10 
REMARK    5  A    between atoms: C_4  and  C_11 
REMARK    6  A    between atoms: C_5  and  C_12 
REMARK    7  A    between atoms: C_5  and  C_13 
REMARK    8  A    between atoms: C_6  and  C_15 
REMARK    9  A    between atoms: C_6  and  C_16 
REMARK   10  A    between atoms: C_7  and  C_23 
REMARK   11  A    between atoms: C_9  and  C_17 
REMARK   12  A    between atoms: C_9  and  C_18 
REMARK   13  A    between atoms: C_14  and  C_19 
REMARK   14  A    between atoms: C_14  and  C_20 
REMARK   15  A    between atoms: C_21  and  C_22 
ROOT
HETATM    1  O   UNL     1      33.289 -14.590  -7.066  1.00  0.00    -0.776 OA
HETATM    2  H   UNL     1      32.347 -14.764  -7.199  1.00  0.00     0.167 HD
ENDROOT
BRANCH   1   3
HETATM    3  C   UNL     1      33.719 -13.454  -6.477  1.00  0.00     0.139 C 
HETATM    4  O   UNL     1      33.324 -13.156  -5.358  1.00  0.00    -0.650 OA
BRANCH   3   5
HETATM    5  C   UNL     1      34.687 -12.559  -7.198  1.00  0.00     0.113 C 
BRANCH   5   6
HETATM    6  C   UNL     1      34.018 -11.890  -8.404  1.00  0.00     0.037 C 
BRANCH   6   7
HETATM    7  C   UNL     1      34.859 -10.742  -8.910  1.00  0.00    -0.030 C 
HETATM    8  C   UNL     1      34.572  -9.426  -8.825  1.00  0.00    -0.027 C 
BRANCH   8   9
HETATM    9  C   UNL     1      33.346  -8.788  -8.207  1.00  0.00     0.053 C 
BRANCH   9  10
HETATM   10  C   UNL     1      33.430  -8.813  -6.702  1.00  0.00    -0.027 C 
HETATM   11  C   UNL     1      32.616  -9.502  -5.882  1.00  0.00    -0.027 C 
BRANCH  11  12
HETATM   12  C   UNL     1      31.507 -10.422  -6.321  1.00  0.00     0.053 C 
BRANCH  12  13
HETATM   13  C   UNL     1      30.374 -10.414  -5.324  1.00  0.00    -0.027 C 
HETATM   14  C   UNL     1      29.188 -11.038  -5.452  1.00  0.00    -0.027 C 
BRANCH  14  15
HETATM   15  C   UNL     1      28.729 -11.835  -6.644  1.00  0.00     0.053 C 
BRANCH  15  16
HETATM   16  C   UNL     1      28.263 -10.873  -7.715  1.00  0.00    -0.027 C 
HETATM   17  C   UNL     1      28.766 -10.708  -8.955  1.00  0.00    -0.027 C 
BRANCH  17  18
HETATM   18  C   UNL     1      29.909 -11.462  -9.581  1.00  0.00     0.053 C 
BRANCH  18  19
HETATM   19  C   UNL     1      30.988 -10.510 -10.041  1.00  0.00    -0.027 C 
HETATM   20  C   UNL     1      31.812 -10.652 -11.099  1.00  0.00    -0.027 C 
BRANCH  20  21
HETATM   21  C   UNL     1      31.813 -11.775 -12.107  1.00  0.00     0.053 C 
BRANCH  21  22
HETATM   22  C   UNL     1      31.387 -11.276 -13.468  1.00  0.00    -0.027 C 
HETATM   23  C   UNL     1      30.129 -11.160 -13.937  1.00  0.00    -0.031 C 
BRANCH  23  24
HETATM   24  C   UNL     1      28.862 -11.522 -13.206  1.00  0.00     0.022 C 
HETATM   25  C   UNL     1      28.180 -10.310 -12.585  1.00  0.00     0.009 C 
ENDBRANCH  23  24
ENDBRANCH  21  22
ENDBRANCH  20  21
ENDBRANCH  18  19
ENDBRANCH  17  18
ENDBRANCH  15  16
ENDBRANCH  14  15
ENDBRANCH  12  13
ENDBRANCH  11  12
ENDBRANCH   9  10
ENDBRANCH   8   9
ENDBRANCH   6   7
ENDBRANCH   5   6
ENDBRANCH   3   5
ENDBRANCH   1   3
TORSDOF 15
ENDMDL
MODEL 8
REMARK VINA RESULT:      -5.0      2.990      5.385
REMARK  15 active torsions:
REMARK  status: ('A' for Active; 'I' for Inactive)
REMARK    1  A    between atoms: O_1  and  C_23 
REMARK    2  A    between atoms: C_3  and  C_7 
REMARK    3  A    between atoms: C_3  and  C_8 
REMARK    4  A    between atoms: C_4  and  C_10 
REMARK    5  A    between atoms: C_4  and  C_11 
REMARK    6  A    between atoms: C_5  and  C_12 
REMARK    7  A    between atoms: C_5  and  C_13 
REMARK    8  A    between atoms: C_6  and  C_15 
REMARK    9  A    between atoms: C_6  and  C_16 
REMARK   10  A    between atoms: C_7  and  C_23 
REMARK   11  A    between atoms: C_9  and  C_17 
REMARK   12  A    between atoms: C_9  and  C_18 
REMARK   13  A    between atoms: C_14  and  C_19 
REMARK   14  A    between atoms: C_14  and  C_20 
REMARK   15  A    between atoms: C_21  and  C_22 
ROOT
HETATM    1  O   UNL     1      34.759  -9.059 -13.482  1.00  0.00    -0.776 OA
HETATM    2  H   UNL     1      34.168  -8.363 -13.163  1.00  0.00     0.167 HD
ENDROOT
BRANCH   1   3
HETATM    3  C   UNL     1      34.319 -10.029 -14.311  1.00  0.00     0.139 C 
HETATM    4  O   UNL     1      35.120 -10.715 -14.931  1.00  0.00    -0.650 OA
BRANCH   3   5
HETATM    5  C   UNL     1      32.844 -10.266 -14.467  1.00  0.00     0.113 C 
BRANCH   5   6
HETATM    6  C   UNL     1      32.214  -9.209 -15.382  1.00  0.00     0.037 C 
BRANCH   6   7
HETATM    7  C   UNL     1      32.426  -9.567 -16.833  1.00  0.00    -0.030 C 
HETATM    8  C   UNL     1      32.003 -10.682 -17.465  1.00  0.00    -0.027 C 
BRANCH   8   9
HETATM    9  C   UNL     1      31.219 -11.835 -16.875  1.00  0.00     0.053 C 
BRANCH   9  10
HETATM   10  C   UNL     1      29.752 -11.710 -17.201  1.00  0.00    -0.027 C 
HETATM   11  C   UNL     1      28.810 -11.189 -16.395  1.00  0.00    -0.027 C 
BRANCH  11  12
HETATM   12  C   UNL     1      29.058 -10.581 -15.039  1.00  0.00     0.053 C 
BRANCH  12  13
HETATM   13  C   UNL     1      28.541 -11.480 -13.944  1.00  0.00    -0.027 C 
HETATM   14  C   UNL     1      28.899 -11.452 -12.646  1.00  0.00    -0.027 C 
BRANCH  14  15
HETATM   15  C   UNL     1      29.931 -10.545 -12.030  1.00  0.00     0.053 C 
BRANCH  15  16
HETATM   16  C   UNL     1      30.014 -10.847 -10.550  1.00  0.00    -0.027 C 
HETATM   17  C   UNL     1      31.092 -11.247  -9.845  1.00  0.00    -0.027 C 
BRANCH  17  18
HETATM   18  C   UNL     1      32.487 -11.470 -10.366  1.00  0.00     0.053 C 
BRANCH  18  19
HETATM   19  C   UNL     1      33.476 -11.544  -9.226  1.00  0.00    -0.027 C 
HETATM   20  C   UNL     1      33.885 -10.538  -8.427  1.00  0.00    -0.027 C 
BRANCH  20  21
HETATM   21  C   UNL     1      33.407  -9.107  -8.449  1.00  0.00     0.053 C 
BRANCH  21  22
HETATM   22  C   UNL     1      33.208  -8.584  -7.045  1.00  0.00    -0.027 C 
HETATM   23  C   UNL     1      32.162  -8.819  -6.229  1.00  0.00    -0.031 C 
BRANCH  23  24
HETATM   24  C   UNL     1      30.943  -9.645  -6.547  1.00  0.00     0.022 C 
HETATM   25  C   UNL     1      31.083 -11.091  -6.090  1.00  0.00     0.009 C 
ENDBRANCH  23  24
ENDBRANCH  21  22
ENDBRANCH  20  21
ENDBRANCH  18  19
ENDBRANCH  17  18
ENDBRANCH  15  16
ENDBRANCH  14  15
ENDBRANCH  12  13
ENDBRANCH  11  12
ENDBRANCH   9  10
ENDBRANCH   8   9
ENDBRANCH   6   7
ENDBRANCH   5   6
ENDBRANCH   3   5
ENDBRANCH   1   3
TORSDOF 15
ENDMDL
MODEL 9
REMARK VINA RESULT:      -5.0      1.342      5.073
REMARK  15 active torsions:
REMARK  status: ('A' for Active; 'I' for Inactive)
REMARK    1  A    between atoms: O_1  and  C_23 
REMARK    2  A    between atoms: C_3  and  C_7 
REMARK    3  A    between atoms: C_3  and  C_8 
REMARK    4  A    between atoms: C_4  and  C_10 
REMARK    5  A    between atoms: C_4  and  C_11 
REMARK    6  A    between atoms: C_5  and  C_12 
REMARK    7  A    between atoms: C_5  and  C_13 
REMARK    8  A    between atoms: C_6  and  C_15 
REMARK    9  A    between atoms: C_6  and  C_16 
REMARK   10  A    between atoms: C_7  and  C_23 
REMARK   11  A    between atoms: C_9  and  C_17 
REMARK   12  A    between atoms: C_9  and  C_18 
REMARK   13  A    between atoms: C_14  and  C_19 
REMARK   14  A    between atoms: C_14  and  C_20 
REMARK   15  A    between atoms: C_21  and  C_22 
ROOT
HETATM    1  O   UNL     1      35.952 -14.057 -13.000  1.00  0.00    -0.776 OA
HETATM    2  H   UNL     1      36.299 -14.748 -12.419  1.00  0.00     0.167 HD
ENDROOT
BRANCH   1   3
HETATM    3  C   UNL     1      34.624 -13.850 -13.133  1.00  0.00     0.139 C 
HETATM    4  O   UNL     1      34.194 -13.234 -14.097  1.00  0.00    -0.650 OA
BRANCH   3   5
HETATM    5  C   UNL     1      33.678 -14.384 -12.094  1.00  0.00     0.113 C 
BRANCH   5   6
HETATM    6  C   UNL     1      34.022 -13.832 -10.706  1.00  0.00     0.037 C 
BRANCH   6   7
HETATM    7  C   UNL     1      33.606 -12.385 -10.590  1.00  0.00    -0.030 C 
HETATM    8  C   UNL     1      32.910 -11.818  -9.582  1.00  0.00    -0.027 C 
BRANCH   8   9
HETATM    9  C   UNL     1      32.383 -12.492  -8.333  1.00  0.00     0.053 C 
BRANCH   9  10
HETATM   10  C   UNL     1      33.105 -11.992  -7.108  1.00  0.00    -0.027 C 
HETATM   11  C   UNL     1      32.765 -10.912  -6.382  1.00  0.00    -0.027 C 
BRANCH  11  12
HETATM   12  C   UNL     1      31.563 -10.037  -6.627  1.00  0.00     0.053 C 
BRANCH  12  13
HETATM   13  C   UNL     1      30.410 -10.447  -5.747  1.00  0.00    -0.027 C 
HETATM   14  C   UNL     1      29.113 -10.514  -6.101  1.00  0.00    -0.027 C 
BRANCH  14  15
HETATM   15  C   UNL     1      28.540 -10.144  -7.444  1.00  0.00     0.053 C 
BRANCH  15  16
HETATM   16  C   UNL     1      28.428 -11.398  -8.281  1.00  0.00    -0.027 C 
HETATM   17  C   UNL     1      28.808 -11.575  -9.563  1.00  0.00    -0.027 C 
BRANCH  17  18
HETATM   18  C   UNL     1      29.458 -10.562 -10.467  1.00  0.00     0.053 C 
BRANCH  18  19
HETATM   19  C   UNL     1      28.946 -10.702 -11.882  1.00  0.00    -0.027 C 
HETATM   20  C   UNL     1      29.628 -11.131 -12.963  1.00  0.00    -0.027 C 
BRANCH  20  21
HETATM   21  C   UNL     1      31.053 -11.624 -13.004  1.00  0.00     0.053 C 
BRANCH  21  22
HETATM   22  C   UNL     1      31.947 -10.630 -13.707  1.00  0.00    -0.027 C 
HETATM   23  C   UNL     1      32.505  -9.522 -13.182  1.00  0.00    -0.031 C 
BRANCH  23  24
HETATM   24  C   UNL     1      32.343  -9.018 -11.772  1.00  0.00     0.022 C 
HETATM   25  C   UNL     1      33.441  -8.039 -11.373  1.00  0.00     0.009 C 
ENDBRANCH  23  24
ENDBRANCH  21  22
ENDBRANCH  20  21
ENDBRANCH  18  19
ENDBRANCH  17  18
ENDBRANCH  15  16
ENDBRANCH  14  15
ENDBRANCH  12  13
ENDBRANCH  11  12
ENDBRANCH   9  10
ENDBRANCH   8   9
ENDBRANCH   6   7
ENDBRANCH   5   6
ENDBRANCH   3   5
ENDBRANCH   1   3
TORSDOF 15
ENDMDL
MODEL 10
REMARK VINA RESULT:      -5.0      3.716      6.695
REMARK  15 active torsions:
REMARK  status: ('A' for Active; 'I' for Inactive)
REMARK    1  A    between atoms: O_1  and  C_23 
REMARK    2  A    between atoms: C_3  and  C_7 
REMARK    3  A    between atoms: C_3  and  C_8 
REMARK    4  A    between atoms: C_4  and  C_10 
REMARK    5  A    between atoms: C_4  and  C_11 
REMARK    6  A    between atoms: C_5  and  C_12 
REMARK    7  A    between atoms: C_5  and  C_13 
REMARK    8  A    between atoms: C_6  and  C_15 
REMARK    9  A    between atoms: C_6  and  C_16 
REMARK   10  A    between atoms: C_7  and  C_23 
REMARK   11  A    between atoms: C_9  and  C_17 
REMARK   12  A    between atoms: C_9  and  C_18 
REMARK   13  A    between atoms: C_14  and  C_19 
REMARK   14  A    between atoms: C_14  and  C_20 
REMARK   15  A    between atoms: C_21  and  C_22 
ROOT
HETATM    1  O   UNL     1      29.177 -10.642 -18.834  1.00  0.00    -0.776 OA
HETATM    2  H   UNL     1      29.233  -9.683 -18.950  1.00  0.00     0.167 HD
ENDROOT
BRANCH   1   3
HETATM    3  C   UNL     1      28.538 -11.188 -17.777  1.00  0.00     0.139 C 
HETATM    4  O   UNL     1      27.320 -11.291 -17.785  1.00  0.00    -0.650 OA
BRANCH   3   5
HETATM    5  C   UNL     1      29.329 -11.669 -16.594  1.00  0.00     0.113 C 
BRANCH   5   6
HETATM    6  C   UNL     1      29.362 -10.608 -15.489  1.00  0.00     0.037 C 
BRANCH   6   7
HETATM    7  C   UNL     1      30.625 -10.732 -14.670  1.00  0.00    -0.030 C 
HETATM    8  C   UNL     1      30.743 -11.268 -13.437  1.00  0.00    -0.027 C 
BRANCH   8   9
HETATM    9  C   UNL     1      29.647 -11.870 -12.584  1.00  0.00     0.053 C 
BRANCH   9  10
HETATM   10  C   UNL     1      29.135 -10.867 -11.581  1.00  0.00    -0.027 C 
HETATM   11  C   UNL     1      29.719 -10.561 -10.409  1.00  0.00    -0.027 C 
BRANCH  11  12
HETATM   12  C   UNL     1      31.024 -11.124  -9.909  1.00  0.00     0.053 C 
BRANCH  12  13
HETATM   13  C   UNL     1      31.956 -10.019  -9.476  1.00  0.00    -0.027 C 
HETATM   14  C   UNL     1      33.056  -9.597 -10.126  1.00  0.00    -0.027 C 
BRANCH  14  15
HETATM   15  C   UNL     1      33.612 -10.176 -11.400  1.00  0.00     0.053 C 
BRANCH  15  16
HETATM   16  C   UNL     1      33.655  -9.084 -12.446  1.00  0.00    -0.027 C 
HETATM   17  C   UNL     1      33.949  -9.203 -13.757  1.00  0.00    -0.027 C 
BRANCH  17  18
HETATM   18  C   UNL     1      34.289 -10.467 -14.501  1.00  0.00     0.053 C 
BRANCH  18  19
HETATM   19  C   UNL     1      35.608 -11.028 -14.025  1.00  0.00    -0.027 C 
HETATM   20  C   UNL     1      35.902 -12.315 -13.749  1.00  0.00    -0.027 C 
BRANCH  20  21
HETATM   21  C   UNL     1      34.993 -13.509 -13.905  1.00  0.00     0.053 C 
BRANCH  21  22
HETATM   22  C   UNL     1      33.655 -13.255 -13.249  1.00  0.00    -0.027 C 
HETATM   23  C   UNL     1      33.309 -13.518 -11.974  1.00  0.00    -0.031 C 
BRANCH  23  24
HETATM   24  C   UNL     1      34.182 -14.146 -10.919  1.00  0.00     0.022 C 
HETATM   25  C   UNL     1      33.897 -13.600  -9.525  1.00  0.00     0.009 C 
ENDBRANCH  23  24
ENDBRANCH  21  22
ENDBRANCH  20  21
ENDBRANCH  18  19
ENDBRANCH  17  18
ENDBRANCH  15  16
ENDBRANCH  14  15
ENDBRANCH  12  13
ENDBRANCH  11  12
ENDBRANCH   9  10
ENDBRANCH   8   9
ENDBRANCH   6   7
ENDBRANCH   5   6
ENDBRANCH   3   5
ENDBRANCH   1   3
TORSDOF 15
ENDMDL
MODEL 11
REMARK VINA RESULT:      -5.0      3.057      6.169
REMARK  15 active torsions:
REMARK  status: ('A' for Active; 'I' for Inactive)
REMARK    1  A    between atoms: O_1  and  C_23 
REMARK    2  A    between atoms: C_3  and  C_7 
REMARK    3  A    between atoms: C_3  and  C_8 
REMARK    4  A    between atoms: C_4  and  C_10 
REMARK    5  A    between atoms: C_4  and  C_11 
REMARK    6  A    between atoms: C_5  and  C_12 
REMARK    7  A    between atoms: C_5  and  C_13 
REMARK    8  A    between atoms: C_6  and  C_15 
REMARK    9  A    between atoms: C_6  and  C_16 
REMARK   10  A    between atoms: C_7  and  C_23 
REMARK   11  A    between atoms: C_9  and  C_17 
REMARK   12  A    between atoms: C_9  and  C_18 
REMARK   13  A    between atoms: C_14  and  C_19 
REMARK   14  A    between atoms: C_14  and  C_20 
REMARK   15  A    between atoms: C_21  and  C_22 
ROOT
HETATM    1  O   UNL     1      28.038 -11.899  -6.051  1.00  0.00    -0.776 OA
HETATM    2  H   UNL     1      27.679 -12.287  -6.861  1.00  0.00     0.167 HD
ENDROOT
BRANCH   1   3
HETATM    3  C   UNL     1      29.199 -11.209  -6.055  1.00  0.00     0.139 C 
HETATM    4  O   UNL     1      30.041 -11.423  -5.195  1.00  0.00    -0.650 OA
BRANCH   3   5
HETATM    5  C   UNL     1      29.453 -10.182  -7.122  1.00  0.00     0.113 C 
BRANCH   5   6
HETATM    6  C   UNL     1      29.928 -10.847  -8.419  1.00  0.00     0.037 C 
BRANCH   6   7
HETATM    7  C   UNL     1      28.755 -11.386  -9.202  1.00  0.00    -0.030 C 
HETATM    8  C   UNL     1      28.462 -11.141 -10.497  1.00  0.00    -0.027 C 
BRANCH   8   9
HETATM    9  C   UNL     1      29.234 -10.275 -11.469  1.00  0.00     0.053 C 
BRANCH   9  10
HETATM   10  C   UNL     1      29.142 -10.826 -12.869  1.00  0.00    -0.027 C 
HETATM   11  C   UNL     1      30.100 -11.528 -13.501  1.00  0.00    -0.027 C 
BRANCH  11  12
HETATM   12  C   UNL     1      31.419 -11.943 -12.902  1.00  0.00     0.053 C 
BRANCH  12  13
HETATM   13  C   UNL     1      32.511 -11.927 -13.943  1.00  0.00    -0.027 C 
HETATM   14  C   UNL     1      33.073 -10.839 -14.501  1.00  0.00    -0.027 C 
BRANCH  14  15
HETATM   15  C   UNL     1      32.690  -9.407 -14.235  1.00  0.00     0.053 C 
BRANCH  15  16
HETATM   16  C   UNL     1      33.737  -8.789 -13.335  1.00  0.00    -0.027 C 
HETATM   17  C   UNL     1      33.671  -8.587 -12.004  1.00  0.00    -0.027 C 
BRANCH  17  18
HETATM   18  C   UNL     1      32.536  -8.951 -11.084  1.00  0.00     0.053 C 
BRANCH  18  19
HETATM   19  C   UNL     1      32.810 -10.266 -10.393  1.00  0.00    -0.027 C 
HETATM   20  C   UNL     1      33.441 -10.461  -9.218  1.00  0.00    -0.027 C 
BRANCH  20  21
HETATM   21  C   UNL     1      33.976  -9.401  -8.286  1.00  0.00     0.053 C 
BRANCH  21  22
HETATM   22  C   UNL     1      32.847  -8.682  -7.585  1.00  0.00    -0.027 C 
HETATM   23  C   UNL     1      32.713  -8.472  -6.261  1.00  0.00    -0.031 C 
BRANCH  23  24
HETATM   24  C   UNL     1      33.658  -8.927  -5.179  1.00  0.00     0.022 C 
HETATM   25  C   UNL     1      32.967  -9.777  -4.121  1.00  0.00     0.009 C 
ENDBRANCH  23  24
ENDBRANCH  21  22
ENDBRANCH  20  21
ENDBRANCH  18  19
ENDBRANCH  17  18
ENDBRANCH  15  16
ENDBRANCH  14  15
ENDBRANCH  12  13
ENDBRANCH  11  12
ENDBRANCH   9  10
ENDBRANCH   8   9
ENDBRANCH   6   7
ENDBRANCH   5   6
ENDBRANCH   3   5
ENDBRANCH   1   3
TORSDOF 15
ENDMDL
MODEL 12
REMARK VINA RESULT:      -5.0      2.247      6.116
REMARK  15 active torsions:
REMARK  status: ('A' for Active; 'I' for Inactive)
REMARK    1  A    between atoms: O_1  and  C_23 
REMARK    2  A    between atoms: C_3  and  C_7 
REMARK    3  A    between atoms: C_3  and  C_8 
REMARK    4  A    between atoms: C_4  and  C_10 
REMARK    5  A    between atoms: C_4  and  C_11 
REMARK    6  A    between atoms: C_5  and  C_12 
REMARK    7  A    between atoms: C_5  and  C_13 
REMARK    8  A    between atoms: C_6  and  C_15 
REMARK    9  A    between atoms: C_6  and  C_16 
REMARK   10  A    between atoms: C_7  and  C_23 
REMARK   11  A    between atoms: C_9  and  C_17 
REMARK   12  A    between atoms: C_9  and  C_18 
REMARK   13  A    between atoms: C_14  and  C_19 
REMARK   14  A    between atoms: C_14  and  C_20 
REMARK   15  A    between atoms: C_21  and  C_22 
ROOT
HETATM    1  O   UNL     1      34.010  -7.886 -10.813  1.00  0.00    -0.776 OA
HETATM    2  H   UNL     1      34.579  -7.757 -11.584  1.00  0.00     0.167 HD
ENDROOT
BRANCH   1   3
HETATM    3  C   UNL     1      33.937  -9.079 -10.184  1.00  0.00     0.139 C 
HETATM    4  O   UNL     1      34.418 -10.075 -10.704  1.00  0.00    -0.650 OA
BRANCH   3   5
HETATM    5  C   UNL     1      33.267  -9.175  -8.843  1.00  0.00     0.113 C 
BRANCH   5   6
HETATM    6  C   UNL     1      34.026 -10.135  -7.920  1.00  0.00     0.037 C 
BRANCH   6   7
HETATM    7  C   UNL     1      33.205 -11.373  -7.649  1.00  0.00    -0.030 C 
HETATM    8  C   UNL     1      33.082 -12.024  -6.473  1.00  0.00    -0.027 C 
BRANCH   8   9
HETATM    9  C   UNL     1      33.731 -11.673  -5.152  1.00  0.00     0.053 C 
BRANCH   9  10
HETATM   10  C   UNL     1      33.102 -10.439  -4.556  1.00  0.00    -0.027 C 
HETATM   11  C   UNL     1      31.818 -10.319  -4.174  1.00  0.00    -0.027 C 
BRANCH  11  12
HETATM   12  C   UNL     1      30.787 -11.416  -4.217  1.00  0.00     0.053 C 
BRANCH  12  13
HETATM   13  C   UNL     1      29.445 -10.876  -4.648  1.00  0.00    -0.027 C 
HETATM   14  C   UNL     1      28.913 -10.938  -5.883  1.00  0.00    -0.027 C 
BRANCH  14  15
HETATM   15  C   UNL     1      29.574 -11.519  -7.105  1.00  0.00     0.053 C 
BRANCH  15  16
HETATM   16  C   UNL     1      28.579 -11.500  -8.244  1.00  0.00    -0.027 C 
HETATM   17  C   UNL     1      28.770 -11.061  -9.504  1.00  0.00    -0.027 C 
BRANCH  17  18
HETATM   18  C   UNL     1      30.038 -10.496 -10.088  1.00  0.00     0.053 C 
BRANCH  18  19
HETATM   19  C   UNL     1      30.944 -11.605 -10.569  1.00  0.00    -0.027 C 
HETATM   20  C   UNL     1      31.625 -11.663 -11.731  1.00  0.00    -0.027 C 
BRANCH  20  21
HETATM   21  C   UNL     1      31.685 -10.604 -12.804  1.00  0.00     0.053 C 
BRANCH  21  22
HETATM   22  C   UNL     1      31.265 -11.168 -14.141  1.00  0.00    -0.027 C 
HETATM   23  C   UNL     1      30.028 -11.166 -14.674  1.00  0.00    -0.031 C 
BRANCH  23  24
HETATM   24  C   UNL     1      28.779 -10.613 -14.040  1.00  0.00     0.022 C 
HETATM   25  C   UNL     1      28.110 -11.610 -13.102  1.00  0.00     0.009 C 
ENDBRANCH  23  24
ENDBRANCH  21  22
ENDBRANCH  20  21
ENDBRANCH  18  19
ENDBRANCH  17  18
ENDBRANCH  15  16
ENDBRANCH  14  15
ENDBRANCH  12  13
ENDBRANCH  11  12
ENDBRANCH   9  10
ENDBRANCH   8   9
ENDBRANCH   6   7
ENDBRANCH   5   6
ENDBRANCH   3   5
ENDBRANCH   1   3
TORSDOF 15
ENDMDL
MODEL 13
REMARK VINA RESULT:      -5.0      3.262      6.942
REMARK  15 active torsions:
REMARK  status: ('A' for Active; 'I' for Inactive)
REMARK    1  A    between atoms: O_1  and  C_23 
REMARK    2  A    between atoms: C_3  and  C_7 
REMARK    3  A    between atoms: C_3  and  C_8 
REMARK    4  A    between atoms: C_4  and  C_10 
REMARK    5  A    between atoms: C_4  and  C_11 
REMARK    6  A    between atoms: C_5  and  C_12 
REMARK    7  A    between atoms: C_5  and  C_13 
REMARK    8  A    between atoms: C_6  and  C_15 
REMARK    9  A    between atoms: C_6  and  C_16 
REMARK   10  A    between atoms: C_7  and  C_23 
REMARK   11  A    between atoms: C_9  and  C_17 
REMARK   12  A    between atoms: C_9  and  C_18 
REMARK   13  A    between atoms: C_14  and  C_19 
REMARK   14  A    between atoms: C_14  and  C_20 
REMARK   15  A    between atoms: C_21  and  C_22 
ROOT
HETATM    1  O   UNL     1      34.058 -15.356  -1.856  1.00  0.00    -0.776 OA
HETATM    2  H   UNL     1      34.031 -16.321  -1.917  1.00  0.00     0.167 HD
ENDROOT
BRANCH   1   3
HETATM    3  C   UNL     1      34.253 -14.587  -2.948  1.00  0.00     0.139 C 
HETATM    4  O   UNL     1      35.118 -14.883  -3.760  1.00  0.00    -0.650 OA
BRANCH   3   5
HETATM    5  C   UNL     1      33.401 -13.369  -3.164  1.00  0.00     0.113 C 
BRANCH   5   6
HETATM    6  C   UNL     1      33.402 -12.954  -4.640  1.00  0.00     0.037 C 
BRANCH   6   7
HETATM    7  C   UNL     1      34.308 -11.765  -4.858  1.00  0.00    -0.030 C 
HETATM    8  C   UNL     1      33.975 -10.461  -4.752  1.00  0.00    -0.027 C 
BRANCH   8   9
HETATM    9  C   UNL     1      32.625  -9.881  -4.391  1.00  0.00     0.053 C 
BRANCH   9  10
HETATM   10  C   UNL     1      32.657  -9.260  -3.018  1.00  0.00    -0.027 C 
HETATM   11  C   UNL     1      31.947  -9.673  -1.952  1.00  0.00    -0.027 C 
BRANCH  11  12
HETATM   12  C   UNL     1      31.032 -10.869  -1.922  1.00  0.00     0.053 C 
BRANCH  12  13
HETATM   13  C   UNL     1      29.609 -10.467  -2.220  1.00  0.00    -0.027 C 
HETATM   14  C   UNL     1      28.924 -10.716  -3.352  1.00  0.00    -0.027 C 
BRANCH  14  15
HETATM   15  C   UNL     1      29.458 -11.409  -4.577  1.00  0.00     0.053 C 
BRANCH  15  16
HETATM   16  C   UNL     1      29.274 -10.492  -5.766  1.00  0.00    -0.027 C 
HETATM   17  C   UNL     1      29.678 -10.693  -7.037  1.00  0.00    -0.027 C 
BRANCH  17  18
HETATM   18  C   UNL     1      30.397 -11.897  -7.583  1.00  0.00     0.053 C 
BRANCH  18  19
HETATM   19  C   UNL     1      31.858 -11.587  -7.813  1.00  0.00    -0.027 C 
HETATM   20  C   UNL     1      32.493 -11.449  -8.995  1.00  0.00    -0.027 C 
BRANCH  20  21
HETATM   21  C   UNL     1      31.878 -11.519 -10.371  1.00  0.00     0.053 C 
BRANCH  21  22
HETATM   22  C   UNL     1      31.093 -10.263 -10.673  1.00  0.00    -0.027 C 
HETATM   23  C   UNL     1      29.804 -10.180 -11.055  1.00  0.00    -0.031 C 
BRANCH  23  24
HETATM   24  C   UNL     1      28.860 -11.332 -11.285  1.00  0.00     0.022 C 
HETATM   25  C   UNL     1      28.352 -11.393 -12.720  1.00  0.00     0.009 C 
ENDBRANCH  23  24
ENDBRANCH  21  22
ENDBRANCH  20  21
ENDBRANCH  18  19
ENDBRANCH  17  18
ENDBRANCH  15  16
ENDBRANCH  14  15
ENDBRANCH  12  13
ENDBRANCH  11  12
ENDBRANCH   9  10
ENDBRANCH   8   9
ENDBRANCH   6   7
ENDBRANCH   5   6
ENDBRANCH   3   5
ENDBRANCH   1   3
TORSDOF 15
ENDMDL
MODEL 14
REMARK VINA RESULT:      -5.0      5.446      9.332
REMARK  15 active torsions:
REMARK  status: ('A' for Active; 'I' for Inactive)
REMARK    1  A    between atoms: O_1  and  C_23 
REMARK    2  A    between atoms: C_3  and  C_7 
REMARK    3  A    between atoms: C_3  and  C_8 
REMARK    4  A    between atoms: C_4  and  C_10 
REMARK    5  A    between atoms: C_4  and  C_11 
REMARK    6  A    between atoms: C_5  and  C_12 
REMARK    7  A    between atoms: C_5  and  C_13 
REMARK    8  A    between atoms: C_6  and  C_15 
REMARK    9  A    between atoms: C_6  and  C_16 
REMARK   10  A    between atoms: C_7  and  C_23 
REMARK   11  A    between atoms: C_9  and  C_17 
REMARK   12  A    between atoms: C_9  and  C_18 
REMARK   13  A    between atoms: C_14  and  C_19 
REMARK   14  A    between atoms: C_14  and  C_20 
REMARK   15  A    between atoms: C_21  and  C_22 
ROOT
HETATM    1  O   UNL     1      35.163  -5.166  -1.367  1.00  0.00    -0.776 OA
HETATM    2  H   UNL     1      35.888  -4.817  -0.831  1.00  0.00     0.167 HD
ENDROOT
BRANCH   1   3
HETATM    3  C   UNL     1      33.931  -5.352  -0.849  1.00  0.00     0.139 C 
HETATM    4  O   UNL     1      33.088  -4.472  -0.943  1.00  0.00    -0.650 OA
BRANCH   3   5
HETATM    5  C   UNL     1      33.598  -6.646  -0.161  1.00  0.00     0.113 C 
BRANCH   5   6
HETATM    6  C   UNL     1      33.185  -7.716  -1.177  1.00  0.00     0.037 C 
BRANCH   6   7
HETATM    7  C   UNL     1      32.999  -9.052  -0.498  1.00  0.00    -0.030 C 
HETATM    8  C   UNL     1      31.992  -9.929  -0.694  1.00  0.00    -0.027 C 
BRANCH   8   9
HETATM    9  C   UNL     1      30.815  -9.786  -1.634  1.00  0.00     0.053 C 
BRANCH   9  10
HETATM   10  C   UNL     1      30.174 -11.125  -1.899  1.00  0.00    -0.027 C 
HETATM   11  C   UNL     1      29.839 -11.609  -3.109  1.00  0.00    -0.027 C 
BRANCH  11  12
HETATM   12  C   UNL     1      30.097 -10.926  -4.426  1.00  0.00     0.053 C 
BRANCH  12  13
HETATM   13  C   UNL     1      29.009 -11.246  -5.421  1.00  0.00    -0.027 C 
HETATM   14  C   UNL     1      29.116 -11.224  -6.763  1.00  0.00    -0.027 C 
BRANCH  14  15
HETATM   15  C   UNL     1      30.336 -10.825  -7.549  1.00  0.00     0.053 C 
BRANCH  15  16
HETATM   16  C   UNL     1      30.985 -12.077  -8.098  1.00  0.00    -0.027 C 
HETATM   17  C   UNL     1      32.163 -12.626  -7.738  1.00  0.00    -0.027 C 
BRANCH  17  18
HETATM   18  C   UNL     1      33.113 -12.129  -6.681  1.00  0.00     0.053 C 
BRANCH  18  19
HETATM   19  C   UNL     1      33.528 -13.256  -5.764  1.00  0.00    -0.027 C 
HETATM   20  C   UNL     1      33.676 -13.213  -4.425  1.00  0.00    -0.027 C 
BRANCH  20  21
HETATM   21  C   UNL     1      33.406 -12.038  -3.517  1.00  0.00     0.053 C 
BRANCH  21  22
HETATM   22  C   UNL     1      34.518 -11.019  -3.611  1.00  0.00    -0.027 C 
HETATM   23  C   UNL     1      34.415  -9.734  -4.004  1.00  0.00    -0.031 C 
BRANCH  23  24
HETATM   24  C   UNL     1      33.162  -9.032  -4.457  1.00  0.00     0.022 C 
HETATM   25  C   UNL     1      33.131  -8.809  -5.964  1.00  0.00     0.009 C 
ENDBRANCH  23  24
ENDBRANCH  21  22
ENDBRANCH  20  21
ENDBRANCH  18  19
ENDBRANCH  17  18
ENDBRANCH  15  16
ENDBRANCH  14  15
ENDBRANCH  12  13
ENDBRANCH  11  12
ENDBRANCH   9  10
ENDBRANCH   8   9
ENDBRANCH   6   7
ENDBRANCH   5   6
ENDBRANCH   3   5
ENDBRANCH   1   3
TORSDOF 15
ENDMDL
MODEL 15
REMARK VINA RESULT:      -5.0      2.515      4.450
REMARK  15 active torsions:
REMARK  status: ('A' for Active; 'I' for Inactive)
REMARK    1  A    between atoms: O_1  and  C_23 
REMARK    2  A    between atoms: C_3  and  C_7 
REMARK    3  A    between atoms: C_3  and  C_8 
REMARK    4  A    between atoms: C_4  and  C_10 
REMARK    5  A    between atoms: C_4  and  C_11 
REMARK    6  A    between atoms: C_5  and  C_12 
REMARK    7  A    between atoms: C_5  and  C_13 
REMARK    8  A    between atoms: C_6  and  C_15 
REMARK    9  A    between atoms: C_6  and  C_16 
REMARK   10  A    between atoms: C_7  and  C_23 
REMARK   11  A    between atoms: C_9  and  C_17 
REMARK   12  A    between atoms: C_9  and  C_18 
REMARK   13  A    between atoms: C_14  and  C_19 
REMARK   14  A    between atoms: C_14  and  C_20 
REMARK   15  A    between atoms: C_21  and  C_22 
ROOT
HETATM    1  O   UNL     1      34.600  -7.390 -12.742  1.00  0.00    -0.776 OA
HETATM    2  H   UNL     1      35.535  -7.329 -12.503  1.00  0.00     0.167 HD
ENDROOT
BRANCH   1   3
HETATM    3  C   UNL     1      34.039  -8.566 -13.094  1.00  0.00     0.139 C 
HETATM    4  O   UNL     1      33.853  -8.827 -14.275  1.00  0.00    -0.650 OA
BRANCH   3   5
HETATM    5  C   UNL     1      33.649  -9.555 -12.033  1.00  0.00     0.113 C 
BRANCH   5   6
HETATM    6  C   UNL     1      32.209  -9.314 -11.564  1.00  0.00     0.037 C 
BRANCH   6   7
HETATM    7  C   UNL     1      31.225  -9.918 -12.537  1.00  0.00    -0.030 C 
HETATM    8  C   UNL     1      30.874 -11.218 -12.636  1.00  0.00    -0.027 C 
BRANCH   8   9
HETATM    9  C   UNL     1      31.379 -12.375 -11.801  1.00  0.00     0.053 C 
BRANCH   9  10
HETATM   10  C   UNL     1      32.687 -12.896 -12.342  1.00  0.00    -0.027 C 
HETATM   11  C   UNL     1      33.719 -13.344 -11.605  1.00  0.00    -0.027 C 
BRANCH  11  12
HETATM   12  C   UNL     1      33.735 -13.461 -10.103  1.00  0.00     0.053 C 
BRANCH  12  13
HETATM   13  C   UNL     1      33.870 -12.103  -9.460  1.00  0.00    -0.027 C 
HETATM   14  C   UNL     1      33.066 -11.579  -8.516  1.00  0.00    -0.027 C 
BRANCH  14  15
HETATM   15  C   UNL     1      31.833 -12.225  -7.942  1.00  0.00     0.053 C 
BRANCH  15  16
HETATM   16  C   UNL     1      30.617 -11.524  -8.506  1.00  0.00    -0.027 C 
HETATM   17  C   UNL     1      29.830 -10.612  -7.899  1.00  0.00    -0.027 C 
BRANCH  17  18
HETATM   18  C   UNL     1      29.990 -10.055  -6.509  1.00  0.00     0.053 C 
BRANCH  18  19
HETATM   19  C   UNL     1      29.823 -11.144  -5.476  1.00  0.00    -0.027 C 
HETATM   20  C   UNL     1      30.550 -11.331  -4.355  1.00  0.00    -0.027 C 
BRANCH  20  21
HETATM   21  C   UNL     1      31.670 -10.460  -3.841  1.00  0.00     0.053 C 
BRANCH  21  22
HETATM   22  C   UNL     1      32.979 -10.820  -4.504  1.00  0.00    -0.027 C 
HETATM   23  C   UNL     1      33.768 -10.015  -5.242  1.00  0.00    -0.031 C 
BRANCH  23  24
HETATM   24  C   UNL     1      33.505  -8.572  -5.587  1.00  0.00     0.022 C 
HETATM   25  C   UNL     1      33.303  -8.357  -7.081  1.00  0.00     0.009 C 
ENDBRANCH  23  24
ENDBRANCH  21  22
ENDBRANCH  20  21
ENDBRANCH  18  19
ENDBRANCH  17  18
ENDBRANCH  15  16
ENDBRANCH  14  15
ENDBRANCH  12  13
ENDBRANCH  11  12
ENDBRANCH   9  10
ENDBRANCH   8   9
ENDBRANCH   6   7
ENDBRANCH   5   6
ENDBRANCH   3   5
ENDBRANCH   1   3
TORSDOF 15
ENDMDL
MODEL 16
REMARK VINA RESULT:      -5.0      3.156      6.132
REMARK  15 active torsions:
REMARK  status: ('A' for Active; 'I' for Inactive)
REMARK    1  A    between atoms: O_1  and  C_23 
REMARK    2  A    between atoms: C_3  and  C_7 
REMARK    3  A    between atoms: C_3  and  C_8 
REMARK    4  A    between atoms: C_4  and  C_10 
REMARK    5  A    between atoms: C_4  and  C_11 
REMARK    6  A    between atoms: C_5  and  C_12 
REMARK    7  A    between atoms: C_5  and  C_13 
REMARK    8  A    between atoms: C_6  and  C_15 
REMARK    9  A    between atoms: C_6  and  C_16 
REMARK   10  A    between atoms: C_7  and  C_23 
REMARK   11  A    between atoms: C_9  and  C_17 
REMARK   12  A    between atoms: C_9  and  C_18 
REMARK   13  A    between atoms: C_14  and  C_19 
REMARK   14  A    between atoms: C_14  and  C_20 
REMARK   15  A    between atoms: C_21  and  C_22 
ROOT
HETATM    1  O   UNL     1      34.405 -14.886 -13.936  1.00  0.00    -0.776 OA
HETATM    2  H   UNL     1      34.163 -15.822 -13.902  1.00  0.00     0.167 HD
ENDROOT
BRANCH   1   3
HETATM    3  C   UNL     1      34.499 -14.226 -15.110  1.00  0.00     0.139 C 
HETATM    4  O   UNL     1      35.247 -14.637 -15.986  1.00  0.00    -0.650 OA
BRANCH   3   5
HETATM    5  C   UNL     1      33.680 -12.987 -15.337  1.00  0.00     0.113 C 
BRANCH   5   6
HETATM    6  C   UNL     1      33.427 -12.249 -14.018  1.00  0.00     0.037 C 
BRANCH   6   7
HETATM    7  C   UNL     1      34.126 -10.910 -14.015  1.00  0.00    -0.030 C 
HETATM    8  C   UNL     1      33.678  -9.759 -14.561  1.00  0.00    -0.027 C 
BRANCH   8   9
HETATM    9  C   UNL     1      32.378  -9.536 -15.302  1.00  0.00     0.053 C 
BRANCH   9  10
HETATM   10  C   UNL     1      32.635  -8.994 -16.686  1.00  0.00    -0.027 C 
HETATM   11  C   UNL     1      32.480  -9.673 -17.836  1.00  0.00    -0.027 C 
BRANCH  11  12
HETATM   12  C   UNL     1      31.963 -11.083 -17.956  1.00  0.00     0.053 C 
BRANCH  12  13
HETATM   13  C   UNL     1      30.665 -11.117 -18.724  1.00  0.00    -0.027 C 
HETATM   14  C   UNL     1      29.449 -10.772 -18.261  1.00  0.00    -0.027 C 
BRANCH  14  15
HETATM   15  C   UNL     1      29.127 -10.326 -16.860  1.00  0.00     0.053 C 
BRANCH  15  16
HETATM   16  C   UNL     1      28.438 -11.463 -16.139  1.00  0.00    -0.027 C 
HETATM   17  C   UNL     1      28.360 -11.676 -14.810  1.00  0.00    -0.027 C 
BRANCH  17  18
HETATM   18  C   UNL     1      28.930 -10.813 -13.716  1.00  0.00     0.053 C 
BRANCH  18  19
HETATM   19  C   UNL     1      30.117 -11.487 -13.069  1.00  0.00    -0.027 C 
HETATM   20  C   UNL     1      30.604 -11.279 -11.828  1.00  0.00    -0.027 C 
BRANCH  20  21
HETATM   21  C   UNL     1      30.040 -10.361 -10.771  1.00  0.00     0.053 C 
BRANCH  21  22
HETATM   22  C   UNL     1      29.079 -11.103  -9.872  1.00  0.00    -0.027 C 
HETATM   23  C   UNL     1      29.161 -11.246  -8.534  1.00  0.00    -0.031 C 
BRANCH  23  24
HETATM   24  C   UNL     1      30.247 -10.711  -7.639  1.00  0.00     0.022 C 
HETATM   25  C   UNL     1      29.876 -10.785  -6.163  1.00  0.00     0.009 C 
ENDBRANCH  23  24
ENDBRANCH  21  22
ENDBRANCH  20  21
ENDBRANCH  18  19
ENDBRANCH  17  18
ENDBRANCH  15  16
ENDBRANCH  14  15
ENDBRANCH  12  13
ENDBRANCH  11  12
ENDBRANCH   9  10
ENDBRANCH   8   9
ENDBRANCH   6   7
ENDBRANCH   5   6
ENDBRANCH   3   5
ENDBRANCH   1   3
TORSDOF 15
ENDMDL
MODEL 17
REMARK VINA RESULT:      -4.9      1.830      4.312
REMARK  15 active torsions:
REMARK  status: ('A' for Active; 'I' for Inactive)
REMARK    1  A    between atoms: O_1  and  C_23 
REMARK    2  A    between atoms: C_3  and  C_7 
REMARK    3  A    between atoms: C_3  and  C_8 
REMARK    4  A    between atoms: C_4  and  C_10 
REMARK    5  A    between atoms: C_4  and  C_11 
REMARK    6  A    between atoms: C_5  and  C_12 
REMARK    7  A    between atoms: C_5  and  C_13 
REMARK    8  A    between atoms: C_6  and  C_15 
REMARK    9  A    between atoms: C_6  and  C_16 
REMARK   10  A    between atoms: C_7  and  C_23 
REMARK   11  A    between atoms: C_9  and  C_17 
REMARK   12  A    between atoms: C_9  and  C_18 
REMARK   13  A    between atoms: C_14  and  C_19 
REMARK   14  A    between atoms: C_14  and  C_20 
REMARK   15  A    between atoms: C_21  and  C_22 
ROOT
HETATM    1  O   UNL     1      35.169 -11.529 -14.364  1.00  0.00    -0.776 OA
HETATM    2  H   UNL     1      34.751 -10.666 -14.241  1.00  0.00     0.167 HD
ENDROOT
BRANCH   1   3
HETATM    3  C   UNL     1      34.435 -12.658 -14.468  1.00  0.00     0.139 C 
HETATM    4  O   UNL     1      34.990 -13.741 -14.590  1.00  0.00    -0.650 OA
BRANCH   3   5
HETATM    5  C   UNL     1      32.935 -12.579 -14.430  1.00  0.00     0.113 C 
BRANCH   5   6
HETATM    6  C   UNL     1      32.461 -11.124 -14.530  1.00  0.00     0.037 C 
BRANCH   6   7
HETATM    7  C   UNL     1      31.009 -11.065 -14.937  1.00  0.00    -0.030 C 
HETATM    8  C   UNL     1      29.934 -11.220 -14.136  1.00  0.00    -0.027 C 
BRANCH   8   9
HETATM    9  C   UNL     1      29.926 -11.491 -12.647  1.00  0.00     0.053 C 
BRANCH   9  10
HETATM   10  C   UNL     1      29.552 -10.249 -11.878  1.00  0.00    -0.027 C 
HETATM   11  C   UNL     1      29.276 -10.193 -10.562  1.00  0.00    -0.027 C 
BRANCH  11  12
HETATM   12  C   UNL     1      29.345 -11.353  -9.604  1.00  0.00     0.053 C 
BRANCH  12  13
HETATM   13  C   UNL     1      28.324 -11.205  -8.504  1.00  0.00    -0.027 C 
HETATM   14  C   UNL     1      28.556 -11.268  -7.179  1.00  0.00    -0.027 C 
BRANCH  14  15
HETATM   15  C   UNL     1      29.882 -11.550  -6.524  1.00  0.00     0.053 C 
BRANCH  15  16
HETATM   16  C   UNL     1      30.418 -10.258  -5.948  1.00  0.00    -0.027 C 
HETATM   17  C   UNL     1      31.384  -9.463  -6.452  1.00  0.00    -0.027 C 
BRANCH  17  18
HETATM   18  C   UNL     1      32.153  -9.666  -7.731  1.00  0.00     0.053 C 
BRANCH  18  19
HETATM   19  C   UNL     1      33.046 -10.881  -7.629  1.00  0.00    -0.027 C 
HETATM   20  C   UNL     1      33.248 -11.832  -8.564  1.00  0.00    -0.027 C 
BRANCH  20  21
HETATM   21  C   UNL     1      32.669 -11.877  -9.956  1.00  0.00     0.053 C 
BRANCH  21  22
HETATM   22  C   UNL     1      33.675 -11.390 -10.973  1.00  0.00    -0.027 C 
HETATM   23  C   UNL     1      33.744 -10.165 -11.529  1.00  0.00    -0.031 C 
BRANCH  23  24
HETATM   24  C   UNL     1      32.814  -9.008 -11.271  1.00  0.00     0.022 C 
HETATM   25  C   UNL     1      33.550  -7.677 -11.179  1.00  0.00     0.009 C 
ENDBRANCH  23  24
ENDBRANCH  21  22
ENDBRANCH  20  21
ENDBRANCH  18  19
ENDBRANCH  17  18
ENDBRANCH  15  16
ENDBRANCH  14  15
ENDBRANCH  12  13
ENDBRANCH  11  12
ENDBRANCH   9  10
ENDBRANCH   8   9
ENDBRANCH   6   7
ENDBRANCH   5   6
ENDBRANCH   3   5
ENDBRANCH   1   3
TORSDOF 15
ENDMDL
MODEL 18
REMARK VINA RESULT:      -4.9      2.991      5.922
REMARK  15 active torsions:
REMARK  status: ('A' for Active; 'I' for Inactive)
REMARK    1  A    between atoms: O_1  and  C_23 
REMARK    2  A    between atoms: C_3  and  C_7 
REMARK    3  A    between atoms: C_3  and  C_8 
REMARK    4  A    between atoms: C_4  and  C_10 
REMARK    5  A    between atoms: C_4  and  C_11 
REMARK    6  A    between atoms: C_5  and  C_12 
REMARK    7  A    between atoms: C_5  and  C_13 
REMARK    8  A    between atoms: C_6  and  C_15 
REMARK    9  A    between atoms: C_6  and  C_16 
REMARK   10  A    between atoms: C_7  and  C_23 
REMARK   11  A    between atoms: C_9  and  C_17 
REMARK   12  A    between atoms: C_9  and  C_18 
REMARK   13  A    between atoms: C_14  and  C_19 
REMARK   14  A    between atoms: C_14  and  C_20 
REMARK   15  A    between atoms: C_21  and  C_22 
ROOT
HETATM    1  O   UNL     1      31.081 -10.443 -17.769  1.00  0.00    -0.776 OA
HETATM    2  H   UNL     1      30.732  -9.557 -17.601  1.00  0.00     0.167 HD
ENDROOT
BRANCH   1   3
HETATM    3  C   UNL     1      30.574 -11.529 -17.147  1.00  0.00     0.139 C 
HETATM    4  O   UNL     1      31.066 -12.631 -17.341  1.00  0.00    -0.650 OA
BRANCH   3   5
HETATM    5  C   UNL     1      29.407 -11.377 -16.213  1.00  0.00     0.113 C 
BRANCH   5   6
HETATM    6  C   UNL     1      29.721 -10.367 -15.104  1.00  0.00     0.037 C 
BRANCH   6   7
HETATM    7  C   UNL     1      29.316 -10.913 -13.756  1.00  0.00    -0.030 C 
HETATM    8  C   UNL     1      30.017 -11.768 -12.982  1.00  0.00    -0.027 C 
BRANCH   8   9
HETATM    9  C   UNL     1      31.370 -12.381 -13.277  1.00  0.00     0.053 C 
BRANCH   9  10
HETATM   10  C   UNL     1      32.193 -12.495 -12.019  1.00  0.00    -0.027 C 
HETATM   11  C   UNL     1      33.337 -13.191 -11.890  1.00  0.00    -0.027 C 
BRANCH  11  12
HETATM   12  C   UNL     1      34.037 -13.937 -12.997  1.00  0.00     0.053 C 
BRANCH  12  13
HETATM   13  C   UNL     1      35.176 -13.123 -13.558  1.00  0.00    -0.027 C 
HETATM   14  C   UNL     1      35.105 -12.221 -14.555  1.00  0.00    -0.027 C 
BRANCH  14  15
HETATM   15  C   UNL     1      33.875 -11.875 -15.350  1.00  0.00     0.053 C 
BRANCH  15  16
HETATM   16  C   UNL     1      34.048 -10.486 -15.923  1.00  0.00    -0.027 C 
HETATM   17  C   UNL     1      33.577  -9.322 -15.432  1.00  0.00    -0.027 C 
BRANCH  17  18
HETATM   18  C   UNL     1      32.775  -9.125 -14.172  1.00  0.00     0.053 C 
BRANCH  18  19
HETATM   19  C   UNL     1      33.686  -8.893 -12.990  1.00  0.00    -0.027 C 
HETATM   20  C   UNL     1      33.354  -8.900 -11.683  1.00  0.00    -0.027 C 
BRANCH  20  21
HETATM   21  C   UNL     1      31.998  -9.195 -11.091  1.00  0.00     0.053 C 
BRANCH  21  22
HETATM   22  C   UNL     1      32.134  -9.869  -9.745  1.00  0.00    -0.027 C 
HETATM   23  C   UNL     1      31.188 -10.562  -9.081  1.00  0.00    -0.031 C 
BRANCH  23  24
HETATM   24  C   UNL     1      29.770 -10.802  -9.531  1.00  0.00     0.022 C 
HETATM   25  C   UNL     1      28.859 -11.226  -8.386  1.00  0.00     0.009 C 
ENDBRANCH  23  24
ENDBRANCH  21  22
ENDBRANCH  20  21
ENDBRANCH  18  19
ENDBRANCH  17  18
ENDBRANCH  15  16
ENDBRANCH  14  15
ENDBRANCH  12  13
ENDBRANCH  11  12
ENDBRANCH   9  10
ENDBRANCH   8   9
ENDBRANCH   6   7
ENDBRANCH   5   6
ENDBRANCH   3   5
ENDBRANCH   1   3
TORSDOF 15
ENDMDL
MODEL 19
REMARK VINA RESULT:      -4.9      4.418      7.579
REMARK  15 active torsions:
REMARK  status: ('A' for Active; 'I' for Inactive)
REMARK    1  A    between atoms: O_1  and  C_23 
REMARK    2  A    between atoms: C_3  and  C_7 
REMARK    3  A    between atoms: C_3  and  C_8 
REMARK    4  A    between atoms: C_4  and  C_10 
REMARK    5  A    between atoms: C_4  and  C_11 
REMARK    6  A    between atoms: C_5  and  C_12 
REMARK    7  A    between atoms: C_5  and  C_13 
REMARK    8  A    between atoms: C_6  and  C_15 
REMARK    9  A    between atoms: C_6  and  C_16 
REMARK   10  A    between atoms: C_7  and  C_23 
REMARK   11  A    between atoms: C_9  and  C_17 
REMARK   12  A    between atoms: C_9  and  C_18 
REMARK   13  A    between atoms: C_14  and  C_19 
REMARK   14  A    between atoms: C_14  and  C_20 
REMARK   15  A    between atoms: C_21  and  C_22 
ROOT
HETATM    1  O   UNL     1      36.048 -14.838 -12.624  1.00  0.00    -0.776 OA
HETATM    2  H   UNL     1      36.510 -13.996 -12.735  1.00  0.00     0.167 HD
ENDROOT
BRANCH   1   3
HETATM    3  C   UNL     1      35.601 -15.542 -13.686  1.00  0.00     0.139 C 
HETATM    4  O   UNL     1      34.587 -16.219 -13.589  1.00  0.00    -0.650 OA
BRANCH   3   5
HETATM    5  C   UNL     1      36.351 -15.486 -14.986  1.00  0.00     0.113 C 
BRANCH   5   6
HETATM    6  C   UNL     1      37.290 -14.275 -15.026  1.00  0.00     0.037 C 
BRANCH   6   7
HETATM    7  C   UNL     1      37.471 -13.788 -16.443  1.00  0.00    -0.030 C 
HETATM    8  C   UNL     1      36.768 -12.818 -17.065  1.00  0.00    -0.027 C 
BRANCH   8   9
HETATM    9  C   UNL     1      35.635 -11.991 -16.495  1.00  0.00     0.053 C 
BRANCH   9  10
HETATM   10  C   UNL     1      34.347 -12.775 -16.492  1.00  0.00    -0.027 C 
HETATM   11  C   UNL     1      33.536 -12.949 -15.433  1.00  0.00    -0.027 C 
BRANCH  11  12
HETATM   12  C   UNL     1      33.737 -12.343 -14.069  1.00  0.00     0.053 C 
BRANCH  12  13
HETATM   13  C   UNL     1      32.812 -12.973 -13.058  1.00  0.00    -0.027 C 
HETATM   14  C   UNL     1      31.671 -12.446 -12.576  1.00  0.00    -0.027 C 
BRANCH  14  15
HETATM   15  C   UNL     1      31.109 -11.090 -12.912  1.00  0.00     0.053 C 
BRANCH  15  16
HETATM   16  C   UNL     1      29.644 -11.249 -13.257  1.00  0.00    -0.027 C 
HETATM   17  C   UNL     1      29.037 -10.989 -14.432  1.00  0.00    -0.027 C 
BRANCH  17  18
HETATM   18  C   UNL     1      29.682 -10.492 -15.699  1.00  0.00     0.053 C 
BRANCH  18  19
HETATM   19  C   UNL     1      30.287 -11.638 -16.475  1.00  0.00    -0.027 C 
HETATM   20  C   UNL     1      30.936 -11.579 -17.655  1.00  0.00    -0.027 C 
BRANCH  20  21
HETATM   21  C   UNL     1      31.260 -10.341 -18.454  1.00  0.00     0.053 C 
BRANCH  21  22
HETATM   22  C   UNL     1      32.753 -10.109 -18.506  1.00  0.00    -0.027 C 
HETATM   23  C   UNL     1      33.477  -9.285 -17.725  1.00  0.00    -0.031 C 
BRANCH  23  24
HETATM   24  C   UNL     1      32.951  -8.392 -16.632  1.00  0.00     0.022 C 
HETATM   25  C   UNL     1      33.000  -9.056 -15.262  1.00  0.00     0.009 C 
ENDBRANCH  23  24
ENDBRANCH  21  22
ENDBRANCH  20  21
ENDBRANCH  18  19
ENDBRANCH  17  18
ENDBRANCH  15  16
ENDBRANCH  14  15
ENDBRANCH  12  13
ENDBRANCH  11  12
ENDBRANCH   9  10
ENDBRANCH   8   9
ENDBRANCH   6   7
ENDBRANCH   5   6
ENDBRANCH   3   5
ENDBRANCH   1   3
TORSDOF 15
ENDMDL
MODEL 20
REMARK VINA RESULT:      -4.9      2.772      7.073
REMARK  15 active torsions:
REMARK  status: ('A' for Active; 'I' for Inactive)
REMARK    1  A    between atoms: O_1  and  C_23 
REMARK    2  A    between atoms: C_3  and  C_7 
REMARK    3  A    between atoms: C_3  and  C_8 
REMARK    4  A    between atoms: C_4  and  C_10 
REMARK    5  A    between atoms: C_4  and  C_11 
REMARK    6  A    between atoms: C_5  and  C_12 
REMARK    7  A    between atoms: C_5  and  C_13 
REMARK    8  A    between atoms: C_6  and  C_15 
REMARK    9  A    between atoms: C_6  and  C_16 
REMARK   10  A    between atoms: C_7  and  C_23 
REMARK   11  A    between atoms: C_9  and  C_17 
REMARK   12  A    between atoms: C_9  and  C_18 
REMARK   13  A    between atoms: C_14  and  C_19 
REMARK   14  A    between atoms: C_14  and  C_20 
REMARK   15  A    between atoms: C_21  and  C_22 
ROOT
HETATM    1  O   UNL     1      29.232 -10.890  -8.972  1.00  0.00    -0.776 OA
HETATM    2  H   UNL     1      29.602 -11.734  -9.266  1.00  0.00     0.167 HD
ENDROOT
BRANCH   1   3
HETATM    3  C   UNL     1      28.517 -10.794  -7.831  1.00  0.00     0.139 C 
HETATM    4  O   UNL     1      27.369 -11.214  -7.789  1.00  0.00    -0.650 OA
BRANCH   3   5
HETATM    5  C   UNL     1      29.137 -10.172  -6.612  1.00  0.00     0.113 C 
BRANCH   5   6
HETATM    6  C   UNL     1      30.667 -10.181  -6.712  1.00  0.00     0.037 C 
BRANCH   6   7
HETATM    7  C   UNL     1      31.235 -11.425  -6.073  1.00  0.00    -0.030 C 
HETATM    8  C   UNL     1      32.319 -12.122  -6.476  1.00  0.00    -0.027 C 
BRANCH   8   9
HETATM    9  C   UNL     1      33.219 -11.826  -7.656  1.00  0.00     0.053 C 
BRANCH   9  10
HETATM   10  C   UNL     1      32.539 -12.185  -8.953  1.00  0.00    -0.027 C 
HETATM   11  C   UNL     1      32.887 -11.737 -10.173  1.00  0.00    -0.027 C 
BRANCH  11  12
HETATM   12  C   UNL     1      34.057 -10.836 -10.473  1.00  0.00     0.053 C 
BRANCH  12  13
HETATM   13  C   UNL     1      33.711  -9.394 -10.196  1.00  0.00    -0.027 C 
HETATM   14  C   UNL     1      33.066  -8.550 -11.023  1.00  0.00    -0.027 C 
BRANCH  14  15
HETATM   15  C   UNL     1      32.598  -8.862 -12.420  1.00  0.00     0.053 C 
BRANCH  15  16
HETATM   16  C   UNL     1      33.793  -8.825 -13.346  1.00  0.00    -0.027 C 
HETATM   17  C   UNL     1      34.236  -9.799 -14.167  1.00  0.00    -0.027 C 
BRANCH  17  18
HETATM   18  C   UNL     1      33.627 -11.161 -14.373  1.00  0.00     0.053 C 
BRANCH  18  19
HETATM   19  C   UNL     1      33.310 -11.388 -15.833  1.00  0.00    -0.027 C 
HETATM   20  C   UNL     1      32.336 -10.805 -16.562  1.00  0.00    -0.027 C 
BRANCH  20  21
HETATM   21  C   UNL     1      31.367  -9.744 -16.103  1.00  0.00     0.053 C 
BRANCH  21  22
HETATM   22  C   UNL     1      29.966 -10.300 -16.006  1.00  0.00    -0.027 C 
HETATM   23  C   UNL     1      29.406 -10.918 -14.947  1.00  0.00    -0.031 C 
BRANCH  23  24
HETATM   24  C   UNL     1      30.066 -11.208 -13.625  1.00  0.00     0.022 C 
HETATM   25  C   UNL     1      29.231 -10.736 -12.441  1.00  0.00     0.009 C 
ENDBRANCH  23  24
ENDBRANCH  21  22
ENDBRANCH  20  21
ENDBRANCH  18  19
ENDBRANCH  17  18
ENDBRANCH  15  16
ENDBRANCH  14  15
ENDBRANCH  12  13
ENDBRANCH  11  12
ENDBRANCH   9  10
ENDBRANCH   8   9
ENDBRANCH   6   7
ENDBRANCH   5   6
ENDBRANCH   3   5
ENDBRANCH   1   3
TORSDOF 15
ENDMDL
