MODEL 1
REMARK VINA RESULT:      -5.0      0.000      0.000
REMARK  16 active torsions:
REMARK  status: ('A' for Active; 'I' for Inactive)
REMARK    1  A    between atoms: O_1  and  C_20 
REMARK    2  A    between atoms: C_3  and  C_4 
REMARK    3  A    between atoms: C_3  and  C_5 
REMARK    4  A    between atoms: C_4  and  C_8 
REMARK    5  A    between atoms: C_5  and  C_11 
REMARK    6  A    between atoms: C_6  and  C_7 
REMARK    7  A    between atoms: C_6  and  C_9 
REMARK    8  A    between atoms: C_7  and  C_10 
REMARK    9  A    between atoms: C_8  and  C_12 
REMARK   10  A    between atoms: C_9  and  C_13 
REMARK   11  A    between atoms: C_10  and  C_14 
REMARK   12  A    between atoms: C_11  and  C_15 
REMARK   13  A    between atoms: C_12  and  C_16 
REMARK   14  A    between atoms: C_13  and  C_17 
REMARK   15  A    between atoms: C_14  and  C_18 
REMARK   16  A    between atoms: C_18  and  C_20 
ROOT
HETATM    1  O   UNL     1      35.628  -5.981 -12.381  1.00  0.00    -0.776 OA
HETATM    2  H   UNL     1      35.609  -5.827 -13.336  1.00  0.00     0.167 HD
ENDROOT
BRANCH   1   3
HETATM    3  C   UNL     1      34.554  -5.729 -11.604  1.00  0.00     0.139 C 
HETATM    4  O   UNL     1      34.407  -4.619 -11.111  1.00  0.00    -0.650 OA
BRANCH   3   5
HETATM    5  C   UNL     1      33.554  -6.829 -11.361  1.00  0.00     0.110 C 
BRANCH   5   6
HETATM    6  C   UNL     1      33.969  -8.169 -11.984  1.00  0.00     0.010 C 
BRANCH   6   7
HETATM    7  C   UNL     1      32.943  -9.264 -11.665  1.00  0.00     0.001 C 
BRANCH   7   8
HETATM    8  C   UNL     1      32.519  -9.205 -10.193  1.00  0.00     0.000 C 
BRANCH   8   9
HETATM    9  C   UNL     1      33.657  -9.660  -9.273  1.00  0.00     0.000 C 
BRANCH   9  10
HETATM   10  C   UNL     1      33.820  -8.696  -8.093  1.00  0.00     0.004 C 
BRANCH  10  11
HETATM   11  C   UNL     1      33.359  -9.337  -6.781  1.00  0.00     0.027 C 
BRANCH  11  12
HETATM   12  C   UNL     1      31.907  -9.002  -6.541  1.00  0.00    -0.031 C 
HETATM   13  C   UNL     1      30.871  -9.865  -6.529  1.00  0.00    -0.031 C 
BRANCH  13  14
HETATM   14  C   UNL     1      30.927 -11.360  -6.761  1.00  0.00     0.027 C 
BRANCH  14  15
HETATM   15  C   UNL     1      30.547 -11.714  -8.210  1.00  0.00     0.004 C 
BRANCH  15  16
HETATM   16  C   UNL     1      29.529 -10.750  -8.853  1.00  0.00     0.000 C 
BRANCH  16  17
HETATM   17  C   UNL     1      29.027 -11.227 -10.226  1.00  0.00     0.000 C 
BRANCH  17  18
HETATM   18  C   UNL     1      29.195 -10.132 -11.288  1.00  0.00     0.000 C 
BRANCH  18  19
HETATM   19  C   UNL     1      29.708 -10.720 -12.608  1.00  0.00    -0.000 C 
BRANCH  19  20
HETATM   20  C   UNL     1      30.090 -12.196 -12.443  1.00  0.00    -0.005 C 
HETATM   21  C   UNL     1      31.594 -12.396 -12.601  1.00  0.00     0.005 C 
ENDBRANCH  19  20
ENDBRANCH  18  19
ENDBRANCH  17  18
ENDBRANCH  16  17
ENDBRANCH  15  16
ENDBRANCH  14  15
ENDBRANCH  13  14
ENDBRANCH  11  12
ENDBRANCH  10  11
ENDBRANCH   9  10
ENDBRANCH   8   9
ENDBRANCH   7   8
ENDBRANCH   6   7
ENDBRANCH   5   6
ENDBRANCH   3   5
ENDBRANCH   1   3
TORSDOF 16
ENDMDL
MODEL 2
REMARK VINA RESULT:      -4.7      3.055      5.658
REMARK  16 active torsions:
REMARK  status: ('A' for Active; 'I' for Inactive)
REMARK    1  A    between atoms: O_1  and  C_20 
REMARK    2  A    between atoms: C_3  and  C_4 
REMARK    3  A    between atoms: C_3  and  C_5 
REMARK    4  A    between atoms: C_4  and  C_8 
REMARK    5  A    between atoms: C_5  and  C_11 
REMARK    6  A    between atoms: C_6  and  C_7 
REMARK    7  A    between atoms: C_6  and  C_9 
REMARK    8  A    between atoms: C_7  and  C_10 
REMARK    9  A    between atoms: C_8  and  C_12 
REMARK   10  A    between atoms: C_9  and  C_13 
REMARK   11  A    between atoms: C_10  and  C_14 
REMARK   12  A    between atoms: C_11  and  C_15 
REMARK   13  A    between atoms: C_12  and  C_16 
REMARK   14  A    between atoms: C_13  and  C_17 
REMARK   15  A    between atoms: C_14  and  C_18 
REMARK   16  A    between atoms: C_18  and  C_20 
ROOT
HETATM    1  O   UNL     1      35.520  -6.300  -7.502  1.00  0.00    -0.776 OA
HETATM    2  H   UNL     1      35.511  -7.141  -7.981  1.00  0.00     0.167 HD
ENDROOT
BRANCH   1   3
HETATM    3  C   UNL     1      34.476  -5.912  -6.739  1.00  0.00     0.139 C 
HETATM    4  O   UNL     1      34.189  -4.725  -6.662  1.00  0.00    -0.650 OA
BRANCH   3   5
HETATM    5  C   UNL     1      33.685  -6.956  -5.996  1.00  0.00     0.110 C 
BRANCH   5   6
HETATM    6  C   UNL     1      33.488  -8.249  -6.800  1.00  0.00     0.010 C 
BRANCH   6   7
HETATM    7  C   UNL     1      32.990  -9.386  -5.900  1.00  0.00     0.001 C 
BRANCH   7   8
HETATM    8  C   UNL     1      31.460  -9.384  -5.813  1.00  0.00     0.000 C 
BRANCH   8   9
HETATM    9  C   UNL     1      30.942 -10.673  -5.164  1.00  0.00     0.000 C 
BRANCH   9  10
HETATM   10  C   UNL     1      29.631 -11.122  -5.817  1.00  0.00     0.004 C 
BRANCH  10  11
HETATM   11  C   UNL     1      29.224 -10.183  -6.956  1.00  0.00     0.027 C 
BRANCH  11  12
HETATM   12  C   UNL     1      29.119 -10.968  -8.241  1.00  0.00    -0.031 C 
HETATM   13  C   UNL     1      30.102 -11.184  -9.137  1.00  0.00    -0.031 C 
BRANCH  13  14
HETATM   14  C   UNL     1      31.529 -10.683  -9.064  1.00  0.00     0.027 C 
BRANCH  14  15
HETATM   15  C   UNL     1      32.521 -11.849  -8.904  1.00  0.00     0.004 C 
BRANCH  15  16
HETATM   16  C   UNL     1      32.110 -12.892  -7.845  1.00  0.00     0.000 C 
BRANCH  16  17
HETATM   17  C   UNL     1      33.294 -13.717  -7.314  1.00  0.00     0.000 C 
BRANCH  17  18
HETATM   18  C   UNL     1      34.176 -12.879  -6.379  1.00  0.00     0.000 C 
BRANCH  18  19
HETATM   19  C   UNL     1      33.704 -12.999  -4.925  1.00  0.00    -0.000 C 
BRANCH  19  20
HETATM   20  C   UNL     1      34.443 -14.128  -4.196  1.00  0.00    -0.005 C 
HETATM   21  C   UNL     1      35.893 -14.226  -4.660  1.00  0.00     0.005 C 
ENDBRANCH  19  20
ENDBRANCH  18  19
ENDBRANCH  17  18
ENDBRANCH  16  17
ENDBRANCH  15  16
ENDBRANCH  14  15
ENDBRANCH  13  14
ENDBRANCH  11  12
ENDBRANCH  10  11
ENDBRANCH   9  10
ENDBRANCH   8   9
ENDBRANCH   7   8
ENDBRANCH   6   7
ENDBRANCH   5   6
ENDBRANCH   3   5
ENDBRANCH   1   3
TORSDOF 16
ENDMDL
MODEL 3
REMARK VINA RESULT:      -4.6      1.522      4.422
REMARK  16 active torsions:
REMARK  status: ('A' for Active; 'I' for Inactive)
REMARK    1  A    between atoms: O_1  and  C_20 
REMARK    2  A    between atoms: C_3  and  C_4 
REMARK    3  A    between atoms: C_3  and  C_5 
REMARK    4  A    between atoms: C_4  and  C_8 
REMARK    5  A    between atoms: C_5  and  C_11 
REMARK    6  A    between atoms: C_6  and  C_7 
REMARK    7  A    between atoms: C_6  and  C_9 
REMARK    8  A    between atoms: C_7  and  C_10 
REMARK    9  A    between atoms: C_8  and  C_12 
REMARK   10  A    between atoms: C_9  and  C_13 
REMARK   11  A    between atoms: C_10  and  C_14 
REMARK   12  A    between atoms: C_11  and  C_15 
REMARK   13  A    between atoms: C_12  and  C_16 
REMARK   14  A    between atoms: C_13  and  C_17 
REMARK   15  A    between atoms: C_14  and  C_18 
REMARK   16  A    between atoms: C_18  and  C_20 
ROOT
HETATM    1  O   UNL     1      35.248  -5.607 -12.714  1.00  0.00    -0.776 OA
HETATM    2  H   UNL     1      35.029  -6.142 -13.491  1.00  0.00     0.167 HD
ENDROOT
BRANCH   1   3
HETATM    3  C   UNL     1      34.447  -5.578 -11.629  1.00  0.00     0.139 C 
HETATM    4  O   UNL     1      34.022  -4.507 -11.216  1.00  0.00    -0.650 OA
BRANCH   3   5
HETATM    5  C   UNL     1      34.092  -6.873 -10.948  1.00  0.00     0.110 C 
BRANCH   5   6
HETATM    6  C   UNL     1      33.093  -7.721 -11.748  1.00  0.00     0.010 C 
BRANCH   6   7
HETATM    7  C   UNL     1      32.629  -8.936 -10.935  1.00  0.00     0.001 C 
BRANCH   7   8
HETATM    8  C   UNL     1      33.687 -10.045 -10.955  1.00  0.00     0.000 C 
BRANCH   8   9
HETATM    9  C   UNL     1      33.799 -10.675 -12.348  1.00  0.00     0.000 C 
BRANCH   9  10
HETATM   10  C   UNL     1      33.680 -12.200 -12.265  1.00  0.00     0.004 C 
BRANCH  10  11
HETATM   11  C   UNL     1      32.226 -12.657 -12.415  1.00  0.00     0.027 C 
BRANCH  11  12
HETATM   12  C   UNL     1      31.542 -11.814 -13.465  1.00  0.00    -0.031 C 
HETATM   13  C   UNL     1      30.280 -11.342 -13.423  1.00  0.00    -0.031 C 
BRANCH  13  14
HETATM   14  C   UNL     1      29.263 -11.553 -12.321  1.00  0.00     0.027 C 
BRANCH  14  15
HETATM   15  C   UNL     1      29.395 -10.478 -11.228  1.00  0.00     0.004 C 
BRANCH  15  16
HETATM   16  C   UNL     1      29.385 -11.030  -9.788  1.00  0.00     0.000 C 
BRANCH  16  17
HETATM   17  C   UNL     1      30.788 -11.367  -9.258  1.00  0.00     0.000 C 
BRANCH  17  18
HETATM   18  C   UNL     1      30.713 -12.025  -7.874  1.00  0.00     0.000 C 
BRANCH  18  19
HETATM   19  C   UNL     1      29.293 -11.941  -7.302  1.00  0.00    -0.000 C 
BRANCH  19  20
HETATM   20  C   UNL     1      29.282 -11.203  -5.958  1.00  0.00    -0.005 C 
HETATM   21  C   UNL     1      29.446  -9.700  -6.153  1.00  0.00     0.005 C 
ENDBRANCH  19  20
ENDBRANCH  18  19
ENDBRANCH  17  18
ENDBRANCH  16  17
ENDBRANCH  15  16
ENDBRANCH  14  15
ENDBRANCH  13  14
ENDBRANCH  11  12
ENDBRANCH  10  11
ENDBRANCH   9  10
ENDBRANCH   8   9
ENDBRANCH   7   8
ENDBRANCH   6   7
ENDBRANCH   5   6
ENDBRANCH   3   5
ENDBRANCH   1   3
TORSDOF 16
ENDMDL
MODEL 4
REMARK VINA RESULT:      -4.6      3.713      6.654
REMARK  16 active torsions:
REMARK  status: ('A' for Active; 'I' for Inactive)
REMARK    1  A    between atoms: O_1  and  C_20 
REMARK    2  A    between atoms: C_3  and  C_4 
REMARK    3  A    between atoms: C_3  and  C_5 
REMARK    4  A    between atoms: C_4  and  C_8 
REMARK    5  A    between atoms: C_5  and  C_11 
REMARK    6  A    between atoms: C_6  and  C_7 
REMARK    7  A    between atoms: C_6  and  C_9 
REMARK    8  A    between atoms: C_7  and  C_10 
REMARK    9  A    between atoms: C_8  and  C_12 
REMARK   10  A    between atoms: C_9  and  C_13 
REMARK   11  A    between atoms: C_10  and  C_14 
REMARK   12  A    between atoms: C_11  and  C_15 
REMARK   13  A    between atoms: C_12  and  C_16 
REMARK   14  A    between atoms: C_13  and  C_17 
REMARK   15  A    between atoms: C_14  and  C_18 
REMARK   16  A    between atoms: C_18  and  C_20 
ROOT
HETATM    1  O   UNL     1      35.350  -6.269 -17.479  1.00  0.00    -0.776 OA
HETATM    2  H   UNL     1      35.185  -6.025 -18.401  1.00  0.00     0.167 HD
ENDROOT
BRANCH   1   3
HETATM    3  C   UNL     1      34.476  -5.958 -16.499  1.00  0.00     0.139 C 
HETATM    4  O   UNL     1      34.387  -4.801 -16.111  1.00  0.00    -0.650 OA
BRANCH   3   5
HETATM    5  C   UNL     1      33.625  -7.049 -15.904  1.00  0.00     0.110 C 
BRANCH   5   6
HETATM    6  C   UNL     1      33.518  -8.288 -16.803  1.00  0.00     0.010 C 
BRANCH   6   7
HETATM    7  C   UNL     1      33.528  -9.575 -15.969  1.00  0.00     0.001 C 
BRANCH   7   8
HETATM    8  C   UNL     1      33.850 -10.791 -16.843  1.00  0.00     0.000 C 
BRANCH   8   9
HETATM    9  C   UNL     1      32.699 -11.096 -17.810  1.00  0.00     0.000 C 
BRANCH   9  10
HETATM   10  C   UNL     1      31.872 -12.285 -17.311  1.00  0.00     0.004 C 
BRANCH  10  11
HETATM   11  C   UNL     1      30.372 -12.035 -17.485  1.00  0.00     0.027 C 
BRANCH  11  12
HETATM   12  C   UNL     1      30.052 -10.611 -17.097  1.00  0.00    -0.031 C 
HETATM   13  C   UNL     1      29.777 -10.155 -15.858  1.00  0.00    -0.031 C 
BRANCH  13  14
HETATM   14  C   UNL     1      29.716 -10.966 -14.581  1.00  0.00     0.027 C 
BRANCH  14  15
HETATM   15  C   UNL     1      31.051 -10.905 -13.819  1.00  0.00     0.004 C 
BRANCH  15  16
HETATM   16  C   UNL     1      31.383 -12.177 -13.013  1.00  0.00     0.000 C 
BRANCH  16  17
HETATM   17  C   UNL     1      31.942 -11.879 -11.612  1.00  0.00     0.000 C 
BRANCH  17  18
HETATM   18  C   UNL     1      31.049 -10.882 -10.862  1.00  0.00     0.000 C 
BRANCH  18  19
HETATM   19  C   UNL     1      31.863 -10.073  -9.845  1.00  0.00    -0.000 C 
BRANCH  19  20
HETATM   20  C   UNL     1      33.078  -9.414 -10.509  1.00  0.00    -0.005 C 
HETATM   21  C   UNL     1      32.647  -8.351 -11.515  1.00  0.00     0.005 C 
ENDBRANCH  19  20
ENDBRANCH  18  19
ENDBRANCH  17  18
ENDBRANCH  16  17
ENDBRANCH  15  16
ENDBRANCH  14  15
ENDBRANCH  13  14
ENDBRANCH  11  12
ENDBRANCH  10  11
ENDBRANCH   9  10
ENDBRANCH   8   9
ENDBRANCH   7   8
ENDBRANCH   6   7
ENDBRANCH   5   6
ENDBRANCH   3   5
ENDBRANCH   1   3
TORSDOF 16
ENDMDL
MODEL 5
REMARK VINA RESULT:      -4.6      2.584      4.866
REMARK  16 active torsions:
REMARK  status: ('A' for Active; 'I' for Inactive)
REMARK    1  A    between atoms: O_1  and  C_20 
REMARK    2  A    between atoms: C_3  and  C_4 
REMARK    3  A    between atoms: C_3  and  C_5 
REMARK    4  A    between atoms: C_4  and  C_8 
REMARK    5  A    between atoms: C_5  and  C_11 
REMARK    6  A    between atoms: C_6  and  C_7 
REMARK    7  A    between atoms: C_6  and  C_9 
REMARK    8  A    between atoms: C_7  and  C_10 
REMARK    9  A    between atoms: C_8  and  C_12 
REMARK   10  A    between atoms: C_9  and  C_13 
REMARK   11  A    between atoms: C_10  and  C_14 
REMARK   12  A    between atoms: C_11  and  C_15 
REMARK   13  A    between atoms: C_12  and  C_16 
REMARK   14  A    between atoms: C_13  and  C_17 
REMARK   15  A    between atoms: C_14  and  C_18 
REMARK   16  A    between atoms: C_18  and  C_20 
ROOT
HETATM    1  O   UNL     1      34.213  -9.127 -10.107  1.00  0.00    -0.776 OA
HETATM    2  H   UNL     1      34.989  -8.603 -10.350  1.00  0.00     0.167 HD
ENDROOT
BRANCH   1   3
HETATM    3  C   UNL     1      34.016  -9.550  -8.841  1.00  0.00     0.139 C 
HETATM    4  O   UNL     1      34.941 -10.055  -8.218  1.00  0.00    -0.650 OA
BRANCH   3   5
HETATM    5  C   UNL     1      32.653  -9.388  -8.219  1.00  0.00     0.110 C 
BRANCH   5   6
HETATM    6  C   UNL     1      32.689  -8.655  -6.871  1.00  0.00     0.010 C 
BRANCH   6   7
HETATM    7  C   UNL     1      32.044  -9.502  -5.767  1.00  0.00     0.001 C 
BRANCH   7   8
HETATM    8  C   UNL     1      31.369 -10.746  -6.356  1.00  0.00     0.000 C 
BRANCH   8   9
HETATM    9  C   UNL     1      29.901 -10.834  -5.924  1.00  0.00     0.000 C 
BRANCH   9  10
HETATM   10  C   UNL     1      29.048 -11.475  -7.023  1.00  0.00     0.004 C 
BRANCH  10  11
HETATM   11  C   UNL     1      29.131 -10.681  -8.330  1.00  0.00     0.027 C 
BRANCH  11  12
HETATM   12  C   UNL     1      28.753 -11.576  -9.486  1.00  0.00    -0.031 C 
HETATM   13  C   UNL     1      28.903 -11.304 -10.798  1.00  0.00    -0.031 C 
BRANCH  13  14
HETATM   14  C   UNL     1      29.473 -10.042 -11.409  1.00  0.00     0.027 C 
BRANCH  14  15
HETATM   15  C   UNL     1      31.008 -10.111 -11.498  1.00  0.00     0.004 C 
BRANCH  15  16
HETATM   16  C   UNL     1      31.560 -10.179 -12.937  1.00  0.00     0.000 C 
BRANCH  16  17
HETATM   17  C   UNL     1      31.325 -11.540 -13.613  1.00  0.00     0.000 C 
BRANCH  17  18
HETATM   18  C   UNL     1      31.156 -11.382 -15.130  1.00  0.00     0.000 C 
BRANCH  18  19
HETATM   19  C   UNL     1      29.706 -11.037 -15.488  1.00  0.00    -0.000 C 
BRANCH  19  20
HETATM   20  C   UNL     1      29.600 -10.528 -16.930  1.00  0.00    -0.005 C 
HETATM   21  C   UNL     1      28.238 -10.860 -17.532  1.00  0.00     0.005 C 
ENDBRANCH  19  20
ENDBRANCH  18  19
ENDBRANCH  17  18
ENDBRANCH  16  17
ENDBRANCH  15  16
ENDBRANCH  14  15
ENDBRANCH  13  14
ENDBRANCH  11  12
ENDBRANCH  10  11
ENDBRANCH   9  10
ENDBRANCH   8   9
ENDBRANCH   7   8
ENDBRANCH   6   7
ENDBRANCH   5   6
ENDBRANCH   3   5
ENDBRANCH   1   3
TORSDOF 16
ENDMDL
MODEL 6
REMARK VINA RESULT:      -4.6      3.330      5.639
REMARK  16 active torsions:
REMARK  status: ('A' for Active; 'I' for Inactive)
REMARK    1  A    between atoms: O_1  and  C_20 
REMARK    2  A    between atoms: C_3  and  C_4 
REMARK    3  A    between atoms: C_3  and  C_5 
REMARK    4  A    between atoms: C_4  and  C_8 
REMARK    5  A    between atoms: C_5  and  C_11 
REMARK    6  A    between atoms: C_6  and  C_7 
REMARK    7  A    between atoms: C_6  and  C_9 
REMARK    8  A    between atoms: C_7  and  C_10 
REMARK    9  A    between atoms: C_8  and  C_12 
REMARK   10  A    between atoms: C_9  and  C_13 
REMARK   11  A    between atoms: C_10  and  C_14 
REMARK   12  A    between atoms: C_11  and  C_15 
REMARK   13  A    between atoms: C_12  and  C_16 
REMARK   14  A    between atoms: C_13  and  C_17 
REMARK   15  A    between atoms: C_14  and  C_18 
REMARK   16  A    between atoms: C_18  and  C_20 
ROOT
HETATM    1  O   UNL     1      27.969 -11.946 -12.372  1.00  0.00    -0.776 OA
HETATM    2  H   UNL     1      27.859 -12.907 -12.343  1.00  0.00     0.167 HD
ENDROOT
BRANCH   1   3
HETATM    3  C   UNL     1      29.183 -11.370 -12.252  1.00  0.00     0.139 C 
HETATM    4  O   UNL     1      30.058 -11.622 -13.070  1.00  0.00    -0.650 OA
BRANCH   3   5
HETATM    5  C   UNL     1      29.435 -10.425 -11.107  1.00  0.00     0.110 C 
BRANCH   5   6
HETATM    6  C   UNL     1      29.950 -11.130  -9.845  1.00  0.00     0.010 C 
BRANCH   6   7
HETATM    7  C   UNL     1      28.964 -10.965  -8.682  1.00  0.00     0.001 C 
BRANCH   7   8
HETATM    8  C   UNL     1      29.483 -11.667  -7.422  1.00  0.00     0.000 C 
BRANCH   8   9
HETATM    9  C   UNL     1      29.687 -10.667  -6.278  1.00  0.00     0.000 C 
BRANCH   9  10
HETATM   10  C   UNL     1      31.179 -10.469  -5.989  1.00  0.00     0.004 C 
BRANCH  10  11
HETATM   11  C   UNL     1      31.685  -9.139  -6.553  1.00  0.00     0.027 C 
BRANCH  11  12
HETATM   12  C   UNL     1      33.140  -9.277  -6.934  1.00  0.00    -0.031 C 
HETATM   13  C   UNL     1      33.652  -9.262  -8.181  1.00  0.00    -0.031 C 
BRANCH  13  14
HETATM   14  C   UNL     1      32.888  -9.114  -9.479  1.00  0.00     0.027 C 
BRANCH  14  15
HETATM   15  C   UNL     1      33.610  -9.830 -10.635  1.00  0.00     0.004 C 
BRANCH  15  16
HETATM   16  C   UNL     1      33.366 -11.352 -10.692  1.00  0.00     0.000 C 
BRANCH  16  17
HETATM   17  C   UNL     1      34.618 -12.179 -10.356  1.00  0.00     0.000 C 
BRANCH  17  18
HETATM   18  C   UNL     1      34.334 -13.179  -9.228  1.00  0.00     0.000 C 
BRANCH  18  19
HETATM   19  C   UNL     1      33.015 -12.849  -8.520  1.00  0.00    -0.000 C 
BRANCH  19  20
HETATM   20  C   UNL     1      32.962 -13.484  -7.126  1.00  0.00    -0.005 C 
HETATM   21  C   UNL     1      33.962 -12.822  -6.182  1.00  0.00     0.005 C 
ENDBRANCH  19  20
ENDBRANCH  18  19
ENDBRANCH  17  18
ENDBRANCH  16  17
ENDBRANCH  15  16
ENDBRANCH  14  15
ENDBRANCH  13  14
ENDBRANCH  11  12
ENDBRANCH  10  11
ENDBRANCH   9  10
ENDBRANCH   8   9
ENDBRANCH   7   8
ENDBRANCH   6   7
ENDBRANCH   5   6
ENDBRANCH   3   5
ENDBRANCH   1   3
TORSDOF 16
ENDMDL
MODEL 7
REMARK VINA RESULT:      -4.5      3.962      6.823
REMARK  16 active torsions:
REMARK  status: ('A' for Active; 'I' for Inactive)
REMARK    1  A    between atoms: O_1  and  C_20 
REMARK    2  A    between atoms: C_3  and  C_4 
REMARK    3  A    between atoms: C_3  and  C_5 
REMARK    4  A    between atoms: C_4  and  C_8 
REMARK    5  A    between atoms: C_5  and  C_11 
REMARK    6  A    between atoms: C_6  and  C_7 
REMARK    7  A    between atoms: C_6  and  C_9 
REMARK    8  A    between atoms: C_7  and  C_10 
REMARK    9  A    between atoms: C_8  and  C_12 
REMARK   10  A    between atoms: C_9  and  C_13 
REMARK   11  A    between atoms: C_10  and  C_14 
REMARK   12  A    between atoms: C_11  and  C_15 
REMARK   13  A    between atoms: C_12  and  C_16 
REMARK   14  A    between atoms: C_13  and  C_17 
REMARK   15  A    between atoms: C_14  and  C_18 
REMARK   16  A    between atoms: C_18  and  C_20 
ROOT
HETATM    1  O   UNL     1      35.259  -4.762 -17.837  1.00  0.00    -0.776 OA
HETATM    2  H   UNL     1      34.744  -4.262 -18.486  1.00  0.00     0.167 HD
ENDROOT
BRANCH   1   3
HETATM    3  C   UNL     1      34.662  -5.542 -16.911  1.00  0.00     0.139 C 
HETATM    4  O   UNL     1      34.382  -5.076 -15.815  1.00  0.00    -0.650 OA
BRANCH   3   5
HETATM    5  C   UNL     1      34.352  -6.976 -17.253  1.00  0.00     0.110 C 
BRANCH   5   6
HETATM    6  C   UNL     1      33.617  -7.718 -16.128  1.00  0.00     0.010 C 
BRANCH   6   7
HETATM    7  C   UNL     1      32.454  -8.548 -16.685  1.00  0.00     0.001 C 
BRANCH   7   8
HETATM    8  C   UNL     1      32.964  -9.636 -17.636  1.00  0.00     0.000 C 
BRANCH   8   9
HETATM    9  C   UNL     1      31.803 -10.315 -18.371  1.00  0.00     0.000 C 
BRANCH   9  10
HETATM   10  C   UNL     1      31.304 -11.534 -17.588  1.00  0.00     0.004 C 
BRANCH  10  11
HETATM   11  C   UNL     1      29.778 -11.645 -17.639  1.00  0.00     0.027 C 
BRANCH  11  12
HETATM   12  C   UNL     1      29.165 -10.435 -16.975  1.00  0.00    -0.031 C 
HETATM   13  C   UNL     1      29.172 -10.148 -15.658  1.00  0.00    -0.031 C 
BRANCH  13  14
HETATM   14  C   UNL     1      29.785 -10.975 -14.547  1.00  0.00     0.027 C 
BRANCH  14  15
HETATM   15  C   UNL     1      28.705 -11.521 -13.598  1.00  0.00     0.004 C 
BRANCH  15  16
HETATM   16  C   UNL     1      28.513 -10.696 -12.309  1.00  0.00     0.000 C 
BRANCH  16  17
HETATM   17  C   UNL     1      29.020 -11.414 -11.048  1.00  0.00     0.000 C 
BRANCH  17  18
HETATM   18  C   UNL     1      29.957 -10.510 -10.236  1.00  0.00     0.000 C 
BRANCH  18  19
HETATM   19  C   UNL     1      30.471 -11.233  -8.985  1.00  0.00    -0.000 C 
BRANCH  19  20
HETATM   20  C   UNL     1      29.316 -11.609  -8.051  1.00  0.00    -0.005 C 
HETATM   21  C   UNL     1      28.519 -10.376  -7.636  1.00  0.00     0.005 C 
ENDBRANCH  19  20
ENDBRANCH  18  19
ENDBRANCH  17  18
ENDBRANCH  16  17
ENDBRANCH  15  16
ENDBRANCH  14  15
ENDBRANCH  13  14
ENDBRANCH  11  12
ENDBRANCH  10  11
ENDBRANCH   9  10
ENDBRANCH   8   9
ENDBRANCH   7   8
ENDBRANCH   6   7
ENDBRANCH   5   6
ENDBRANCH   3   5
ENDBRANCH   1   3
TORSDOF 16
ENDMDL
MODEL 8
REMARK VINA RESULT:      -4.4      3.655      5.561
REMARK  16 active torsions:
REMARK  status: ('A' for Active; 'I' for Inactive)
REMARK    1  A    between atoms: O_1  and  C_20 
REMARK    2  A    between atoms: C_3  and  C_4 
REMARK    3  A    between atoms: C_3  and  C_5 
REMARK    4  A    between atoms: C_4  and  C_8 
REMARK    5  A    between atoms: C_5  and  C_11 
REMARK    6  A    between atoms: C_6  and  C_7 
REMARK    7  A    between atoms: C_6  and  C_9 
REMARK    8  A    between atoms: C_7  and  C_10 
REMARK    9  A    between atoms: C_8  and  C_12 
REMARK   10  A    between atoms: C_9  and  C_13 
REMARK   11  A    between atoms: C_10  and  C_14 
REMARK   12  A    between atoms: C_11  and  C_15 
REMARK   13  A    between atoms: C_12  and  C_16 
REMARK   14  A    between atoms: C_13  and  C_17 
REMARK   15  A    between atoms: C_14  and  C_18 
REMARK   16  A    between atoms: C_18  and  C_20 
ROOT
HETATM    1  O   UNL     1      28.103 -11.823 -11.161  1.00  0.00    -0.776 OA
HETATM    2  H   UNL     1      28.542 -11.538 -10.347  1.00  0.00     0.167 HD
ENDROOT
BRANCH   1   3
HETATM    3  C   UNL     1      28.551 -11.440 -12.375  1.00  0.00     0.139 C 
HETATM    4  O   UNL     1      27.783 -11.421 -13.327  1.00  0.00    -0.650 OA
BRANCH   3   5
HETATM    5  C   UNL     1      29.995 -11.042 -12.529  1.00  0.00     0.110 C 
BRANCH   5   6
HETATM    6  C   UNL     1      30.502 -10.155 -11.384  1.00  0.00     0.010 C 
BRANCH   6   7
HETATM    7  C   UNL     1      31.868 -10.636 -10.878  1.00  0.00     0.001 C 
BRANCH   7   8
HETATM    8  C   UNL     1      32.297  -9.854  -9.633  1.00  0.00     0.000 C 
BRANCH   8   9
HETATM    9  C   UNL     1      33.268 -10.672  -8.774  1.00  0.00     0.000 C 
BRANCH   9  10
HETATM   10  C   UNL     1      33.142 -12.167  -9.086  1.00  0.00     0.004 C 
BRANCH  10  11
HETATM   11  C   UNL     1      32.447 -12.919  -7.948  1.00  0.00     0.027 C 
BRANCH  11  12
HETATM   12  C   UNL     1      33.469 -13.725  -7.183  1.00  0.00    -0.031 C 
HETATM   13  C   UNL     1      33.869 -13.521  -5.911  1.00  0.00    -0.031 C 
BRANCH  13  14
HETATM   14  C   UNL     1      33.393 -12.437  -4.968  1.00  0.00     0.027 C 
BRANCH  14  15
HETATM   15  C   UNL     1      34.163 -11.124  -5.196  1.00  0.00     0.004 C 
BRANCH  15  16
HETATM   16  C   UNL     1      33.285  -9.856  -5.154  1.00  0.00     0.000 C 
BRANCH  16  17
HETATM   17  C   UNL     1      31.807 -10.151  -4.850  1.00  0.00     0.000 C 
BRANCH  17  18
HETATM   18  C   UNL     1      30.925  -9.874  -6.075  1.00  0.00     0.000 C 
BRANCH  18  19
HETATM   19  C   UNL     1      29.951 -11.032  -6.324  1.00  0.00    -0.000 C 
BRANCH  19  20
HETATM   20  C   UNL     1      29.389 -10.984  -7.749  1.00  0.00    -0.005 C 
HETATM   21  C   UNL     1      27.890 -11.266  -7.760  1.00  0.00     0.005 C 
ENDBRANCH  19  20
ENDBRANCH  18  19
ENDBRANCH  17  18
ENDBRANCH  16  17
ENDBRANCH  15  16
ENDBRANCH  14  15
ENDBRANCH  13  14
ENDBRANCH  11  12
ENDBRANCH  10  11
ENDBRANCH   9  10
ENDBRANCH   8   9
ENDBRANCH   7   8
ENDBRANCH   6   7
ENDBRANCH   5   6
ENDBRANCH   3   5
ENDBRANCH   1   3
TORSDOF 16
ENDMDL
MODEL 9
REMARK VINA RESULT:      -4.4      3.150      5.189
REMARK  16 active torsions:
REMARK  status: ('A' for Active; 'I' for Inactive)
REMARK    1  A    between atoms: O_1  and  C_20 
REMARK    2  A    between atoms: C_3  and  C_4 
REMARK    3  A    between atoms: C_3  and  C_5 
REMARK    4  A    between atoms: C_4  and  C_8 
REMARK    5  A    between atoms: C_5  and  C_11 
REMARK    6  A    between atoms: C_6  and  C_7 
REMARK    7  A    between atoms: C_6  and  C_9 
REMARK    8  A    between atoms: C_7  and  C_10 
REMARK    9  A    between atoms: C_8  and  C_12 
REMARK   10  A    between atoms: C_9  and  C_13 
REMARK   11  A    between atoms: C_10  and  C_14 
REMARK   12  A    between atoms: C_11  and  C_15 
REMARK   13  A    between atoms: C_12  and  C_16 
REMARK   14  A    between atoms: C_13  and  C_17 
REMARK   15  A    between atoms: C_14  and  C_18 
REMARK   16  A    between atoms: C_18  and  C_20 
ROOT
HETATM    1  O   UNL     1      29.224 -10.879 -14.111  1.00  0.00    -0.776 OA
HETATM    2  H   UNL     1      29.623 -11.510 -14.727  1.00  0.00     0.167 HD
ENDROOT
BRANCH   1   3
HETATM    3  C   UNL     1      28.501 -11.291 -13.048  1.00  0.00     0.139 C 
HETATM    4  O   UNL     1      27.281 -11.342 -13.127  1.00  0.00    -0.650 OA
BRANCH   3   5
HETATM    5  C   UNL     1      29.219 -11.681 -11.783  1.00  0.00     0.110 C 
BRANCH   5   6
HETATM    6  C   UNL     1      29.335 -10.528 -10.776  1.00  0.00     0.010 C 
BRANCH   6   7
HETATM    7  C   UNL     1      29.816 -11.037  -9.411  1.00  0.00     0.001 C 
BRANCH   7   8
HETATM    8  C   UNL     1      28.648 -11.147  -8.425  1.00  0.00     0.000 C 
BRANCH   8   9
HETATM    9  C   UNL     1      29.154 -11.328  -6.989  1.00  0.00     0.000 C 
BRANCH   9  10
HETATM   10  C   UNL     1      30.613 -11.796  -6.982  1.00  0.00     0.004 C 
BRANCH  10  11
HETATM   11  C   UNL     1      31.386 -11.198  -5.803  1.00  0.00     0.027 C 
BRANCH  11  12
HETATM   12  C   UNL     1      31.271  -9.693  -5.840  1.00  0.00    -0.031 C 
HETATM   13  C   UNL     1      32.100  -8.837  -6.471  1.00  0.00    -0.031 C 
BRANCH  13  14
HETATM   14  C   UNL     1      33.334  -9.187  -7.276  1.00  0.00     0.027 C 
BRANCH  14  15
HETATM   15  C   UNL     1      33.033  -9.182  -8.785  1.00  0.00     0.004 C 
BRANCH  15  16
HETATM   16  C   UNL     1      33.267 -10.536  -9.485  1.00  0.00     0.000 C 
BRANCH  16  17
HETATM   17  C   UNL     1      34.081 -10.415 -10.784  1.00  0.00     0.000 C 
BRANCH  17  18
HETATM   18  C   UNL     1      33.568 -11.390 -11.851  1.00  0.00     0.000 C 
BRANCH  18  19
HETATM   19  C   UNL     1      32.512 -10.726 -12.741  1.00  0.00    -0.000 C 
BRANCH  19  20
HETATM   20  C   UNL     1      32.821  -9.238 -12.949  1.00  0.00    -0.005 C 
HETATM   21  C   UNL     1      33.762  -9.032 -14.132  1.00  0.00     0.005 C 
ENDBRANCH  19  20
ENDBRANCH  18  19
ENDBRANCH  17  18
ENDBRANCH  16  17
ENDBRANCH  15  16
ENDBRANCH  14  15
ENDBRANCH  13  14
ENDBRANCH  11  12
ENDBRANCH  10  11
ENDBRANCH   9  10
ENDBRANCH   8   9
ENDBRANCH   7   8
ENDBRANCH   6   7
ENDBRANCH   5   6
ENDBRANCH   3   5
ENDBRANCH   1   3
TORSDOF 16
ENDMDL
MODEL 10
REMARK VINA RESULT:      -4.4      4.376      6.951
REMARK  16 active torsions:
REMARK  status: ('A' for Active; 'I' for Inactive)
REMARK    1  A    between atoms: O_1  and  C_20 
REMARK    2  A    between atoms: C_3  and  C_4 
REMARK    3  A    between atoms: C_3  and  C_5 
REMARK    4  A    between atoms: C_4  and  C_8 
REMARK    5  A    between atoms: C_5  and  C_11 
REMARK    6  A    between atoms: C_6  and  C_7 
REMARK    7  A    between atoms: C_6  and  C_9 
REMARK    8  A    between atoms: C_7  and  C_10 
REMARK    9  A    between atoms: C_8  and  C_12 
REMARK   10  A    between atoms: C_9  and  C_13 
REMARK   11  A    between atoms: C_10  and  C_14 
REMARK   12  A    between atoms: C_11  and  C_15 
REMARK   13  A    between atoms: C_12  and  C_16 
REMARK   14  A    between atoms: C_13  and  C_17 
REMARK   15  A    between atoms: C_14  and  C_18 
REMARK   16  A    between atoms: C_18  and  C_20 
ROOT
HETATM    1  O   UNL     1      29.832 -11.494 -20.847  1.00  0.00    -0.776 OA
HETATM    2  H   UNL     1      30.061 -11.012 -21.655  1.00  0.00     0.167 HD
ENDROOT
BRANCH   1   3
HETATM    3  C   UNL     1      30.102 -10.990 -19.625  1.00  0.00     0.139 C 
HETATM    4  O   UNL     1      31.231 -10.596 -19.366  1.00  0.00    -0.650 OA
BRANCH   3   5
HETATM    5  C   UNL     1      28.999 -10.924 -18.602  1.00  0.00     0.110 C 
BRANCH   5   6
HETATM    6  C   UNL     1      29.367 -11.598 -17.273  1.00  0.00     0.010 C 
BRANCH   6   7
HETATM    7  C   UNL     1      29.279 -10.604 -16.109  1.00  0.00     0.001 C 
BRANCH   7   8
HETATM    8  C   UNL     1      29.922 -11.183 -14.844  1.00  0.00     0.000 C 
BRANCH   8   9
HETATM    9  C   UNL     1      29.169 -10.733 -13.586  1.00  0.00     0.000 C 
BRANCH   9  10
HETATM   10  C   UNL     1      29.071 -11.878 -12.573  1.00  0.00     0.004 C 
BRANCH  10  11
HETATM   11  C   UNL     1      28.996 -11.350 -11.138  1.00  0.00     0.027 C 
BRANCH  11  12
HETATM   12  C   UNL     1      29.982 -10.220 -10.967  1.00  0.00    -0.031 C 
HETATM   13  C   UNL     1      31.155 -10.267 -10.303  1.00  0.00    -0.031 C 
BRANCH  13  14
HETATM   14  C   UNL     1      31.743 -11.455  -9.573  1.00  0.00     0.027 C 
BRANCH  14  15
HETATM   15  C   UNL     1      32.552 -11.008  -8.343  1.00  0.00     0.004 C 
BRANCH  15  16
HETATM   16  C   UNL     1      31.866  -9.921  -7.490  1.00  0.00     0.000 C 
BRANCH  16  17
HETATM   17  C   UNL     1      31.997 -10.164  -5.978  1.00  0.00     0.000 C 
BRANCH  17  18
HETATM   18  C   UNL     1      30.901 -11.111  -5.473  1.00  0.00     0.000 C 
BRANCH  18  19
HETATM   19  C   UNL     1      29.509 -10.504  -5.686  1.00  0.00    -0.000 C 
BRANCH  19  20
HETATM   20  C   UNL     1      28.551 -11.525  -6.311  1.00  0.00    -0.005 C 
HETATM   21  C   UNL     1      28.140 -11.104  -7.719  1.00  0.00     0.005 C 
ENDBRANCH  19  20
ENDBRANCH  18  19
ENDBRANCH  17  18
ENDBRANCH  16  17
ENDBRANCH  15  16
ENDBRANCH  14  15
ENDBRANCH  13  14
ENDBRANCH  11  12
ENDBRANCH  10  11
ENDBRANCH   9  10
ENDBRANCH   8   9
ENDBRANCH   7   8
ENDBRANCH   6   7
ENDBRANCH   5   6
ENDBRANCH   3   5
ENDBRANCH   1   3
TORSDOF 16
ENDMDL
MODEL 11
REMARK VINA RESULT:      -4.4      2.941      5.055
REMARK  16 active torsions:
REMARK  status: ('A' for Active; 'I' for Inactive)
REMARK    1  A    between atoms: O_1  and  C_20 
REMARK    2  A    between atoms: C_3  and  C_4 
REMARK    3  A    between atoms: C_3  and  C_5 
REMARK    4  A    between atoms: C_4  and  C_8 
REMARK    5  A    between atoms: C_5  and  C_11 
REMARK    6  A    between atoms: C_6  and  C_7 
REMARK    7  A    between atoms: C_6  and  C_9 
REMARK    8  A    between atoms: C_7  and  C_10 
REMARK    9  A    between atoms: C_8  and  C_12 
REMARK   10  A    between atoms: C_9  and  C_13 
REMARK   11  A    between atoms: C_10  and  C_14 
REMARK   12  A    between atoms: C_11  and  C_15 
REMARK   13  A    between atoms: C_12  and  C_16 
REMARK   14  A    between atoms: C_13  and  C_17 
REMARK   15  A    between atoms: C_14  and  C_18 
REMARK   16  A    between atoms: C_18  and  C_20 
ROOT
HETATM    1  O   UNL     1      33.129  -8.931 -18.107  1.00  0.00    -0.776 OA
HETATM    2  H   UNL     1      32.353  -9.154 -18.641  1.00  0.00     0.167 HD
ENDROOT
BRANCH   1   3
HETATM    3  C   UNL     1      33.034  -8.726 -16.777  1.00  0.00     0.139 C 
HETATM    4  O   UNL     1      34.001  -8.304 -16.157  1.00  0.00    -0.650 OA
BRANCH   3   5
HETATM    5  C   UNL     1      31.732  -9.024 -16.082  1.00  0.00     0.110 C 
BRANCH   5   6
HETATM    6  C   UNL     1      31.193 -10.429 -16.387  1.00  0.00     0.010 C 
BRANCH   6   7
HETATM    7  C   UNL     1      30.643 -11.094 -15.119  1.00  0.00     0.001 C 
BRANCH   7   8
HETATM    8  C   UNL     1      29.111 -11.069 -15.109  1.00  0.00     0.000 C 
BRANCH   8   9
HETATM    9  C   UNL     1      28.563 -11.334 -13.702  1.00  0.00     0.000 C 
BRANCH   9  10
HETATM   10  C   UNL     1      29.431 -10.646 -12.643  1.00  0.00     0.004 C 
BRANCH  10  11
HETATM   11  C   UNL     1      29.763 -11.596 -11.489  1.00  0.00     0.027 C 
BRANCH  11  12
HETATM   12  C   UNL     1      29.417 -10.932 -10.178  1.00  0.00    -0.031 C 
HETATM   13  C   UNL     1      30.183 -10.891  -9.069  1.00  0.00    -0.031 C 
BRANCH  13  14
HETATM   14  C   UNL     1      31.555 -11.504  -8.884  1.00  0.00     0.027 C 
BRANCH  14  15
HETATM   15  C   UNL     1      32.490 -10.554  -8.114  1.00  0.00     0.004 C 
BRANCH  15  16
HETATM   16  C   UNL     1      32.808  -9.238  -8.853  1.00  0.00     0.000 C 
BRANCH  16  17
HETATM   17  C   UNL     1      33.569  -9.451 -10.172  1.00  0.00     0.000 C 
BRANCH  17  18
HETATM   18  C   UNL     1      32.695  -9.086 -11.379  1.00  0.00     0.000 C 
BRANCH  18  19
HETATM   19  C   UNL     1      33.416  -9.403 -12.695  1.00  0.00    -0.000 C 
BRANCH  19  20
HETATM   20  C   UNL     1      33.487 -10.916 -12.935  1.00  0.00    -0.005 C 
HETATM   21  C   UNL     1      34.237 -11.234 -14.225  1.00  0.00     0.005 C 
ENDBRANCH  19  20
ENDBRANCH  18  19
ENDBRANCH  17  18
ENDBRANCH  16  17
ENDBRANCH  15  16
ENDBRANCH  14  15
ENDBRANCH  13  14
ENDBRANCH  11  12
ENDBRANCH  10  11
ENDBRANCH   9  10
ENDBRANCH   8   9
ENDBRANCH   7   8
ENDBRANCH   6   7
ENDBRANCH   5   6
ENDBRANCH   3   5
ENDBRANCH   1   3
TORSDOF 16
ENDMDL
MODEL 12
REMARK VINA RESULT:      -4.3      3.937      6.618
REMARK  16 active torsions:
REMARK  status: ('A' for Active; 'I' for Inactive)
REMARK    1  A    between atoms: O_1  and  C_20 
REMARK    2  A    between atoms: C_3  and  C_4 
REMARK    3  A    between atoms: C_3  and  C_5 
REMARK    4  A    between atoms: C_4  and  C_8 
REMARK    5  A    between atoms: C_5  and  C_11 
REMARK    6  A    between atoms: C_6  and  C_7 
REMARK    7  A    between atoms: C_6  and  C_9 
REMARK    8  A    between atoms: C_7  and  C_10 
REMARK    9  A    between atoms: C_8  and  C_12 
REMARK   10  A    between atoms: C_9  and  C_13 
REMARK   11  A    between atoms: C_10  and  C_14 
REMARK   12  A    between atoms: C_11  and  C_15 
REMARK   13  A    between atoms: C_12  and  C_16 
REMARK   14  A    between atoms: C_13  and  C_17 
REMARK   15  A    between atoms: C_14  and  C_18 
REMARK   16  A    between atoms: C_18  and  C_20 
ROOT
HETATM    1  O   UNL     1      33.665 -15.787 -12.361  1.00  0.00    -0.776 OA
HETATM    2  H   UNL     1      34.039 -16.647 -12.597  1.00  0.00     0.167 HD
ENDROOT
BRANCH   1   3
HETATM    3  C   UNL     1      34.442 -14.692 -12.228  1.00  0.00     0.139 C 
HETATM    4  O   UNL     1      35.646 -14.773 -12.434  1.00  0.00    -0.650 OA
BRANCH   3   5
HETATM    5  C   UNL     1      33.805 -13.387 -11.828  1.00  0.00     0.110 C 
BRANCH   5   6
HETATM    6  C   UNL     1      32.541 -13.060 -12.636  1.00  0.00     0.010 C 
BRANCH   6   7
HETATM    7  C   UNL     1      32.898 -12.381 -13.964  1.00  0.00     0.001 C 
BRANCH   7   8
HETATM    8  C   UNL     1      31.732 -11.524 -14.470  1.00  0.00     0.000 C 
BRANCH   8   9
HETATM    9  C   UNL     1      31.113 -10.707 -13.330  1.00  0.00     0.000 C 
BRANCH   9  10
HETATM   10  C   UNL     1      29.593 -10.900 -13.288  1.00  0.00     0.004 C 
BRANCH  10  11
HETATM   11  C   UNL     1      29.184 -11.873 -12.178  1.00  0.00     0.027 C 
BRANCH  11  12
HETATM   12  C   UNL     1      28.869 -11.097 -10.922  1.00  0.00    -0.031 C 
HETATM   13  C   UNL     1      29.700 -10.873  -9.883  1.00  0.00    -0.031 C 
BRANCH  13  14
HETATM   14  C   UNL     1      31.129 -11.352  -9.737  1.00  0.00     0.027 C 
BRANCH  14  15
HETATM   15  C   UNL     1      31.531 -11.459  -8.256  1.00  0.00     0.004 C 
BRANCH  15  16
HETATM   16  C   UNL     1      31.566 -10.112  -7.507  1.00  0.00     0.000 C 
BRANCH  16  17
HETATM   17  C   UNL     1      30.840 -10.152  -6.152  1.00  0.00     0.000 C 
BRANCH  17  18
HETATM   18  C   UNL     1      29.468 -10.828  -6.280  1.00  0.00     0.000 C 
BRANCH  18  19
HETATM   19  C   UNL     1      28.952 -11.287  -4.912  1.00  0.00    -0.000 C 
BRANCH  19  20
HETATM   20  C   UNL     1      29.930 -10.903  -3.795  1.00  0.00    -0.005 C 
HETATM   21  C   UNL     1      29.559 -11.582  -2.480  1.00  0.00     0.005 C 
ENDBRANCH  19  20
ENDBRANCH  18  19
ENDBRANCH  17  18
ENDBRANCH  16  17
ENDBRANCH  15  16
ENDBRANCH  14  15
ENDBRANCH  13  14
ENDBRANCH  11  12
ENDBRANCH  10  11
ENDBRANCH   9  10
ENDBRANCH   8   9
ENDBRANCH   7   8
ENDBRANCH   6   7
ENDBRANCH   5   6
ENDBRANCH   3   5
ENDBRANCH   1   3
TORSDOF 16
ENDMDL
MODEL 13
REMARK VINA RESULT:      -4.3      2.744      5.112
REMARK  16 active torsions:
REMARK  status: ('A' for Active; 'I' for Inactive)
REMARK    1  A    between atoms: O_1  and  C_20 
REMARK    2  A    between atoms: C_3  and  C_4 
REMARK    3  A    between atoms: C_3  and  C_5 
REMARK    4  A    between atoms: C_4  and  C_8 
REMARK    5  A    between atoms: C_5  and  C_11 
REMARK    6  A    between atoms: C_6  and  C_7 
REMARK    7  A    between atoms: C_6  and  C_9 
REMARK    8  A    between atoms: C_7  and  C_10 
REMARK    9  A    between atoms: C_8  and  C_12 
REMARK   10  A    between atoms: C_9  and  C_13 
REMARK   11  A    between atoms: C_10  and  C_14 
REMARK   12  A    between atoms: C_11  and  C_15 
REMARK   13  A    between atoms: C_12  and  C_16 
REMARK   14  A    between atoms: C_13  and  C_17 
REMARK   15  A    between atoms: C_14  and  C_18 
REMARK   16  A    between atoms: C_18  and  C_20 
ROOT
HETATM    1  O   UNL     1      34.020  -7.808  -5.759  1.00  0.00    -0.776 OA
HETATM    2  H   UNL     1      33.559  -7.472  -4.977  1.00  0.00     0.167 HD
ENDROOT
BRANCH   1   3
HETATM    3  C   UNL     1      33.531  -8.839  -6.478  1.00  0.00     0.139 C 
HETATM    4  O   UNL     1      34.291  -9.702  -6.897  1.00  0.00    -0.650 OA
BRANCH   3   5
HETATM    5  C   UNL     1      32.051  -8.904  -6.749  1.00  0.00     0.110 C 
BRANCH   5   6
HETATM    6  C   UNL     1      31.286  -9.753  -5.724  1.00  0.00     0.010 C 
BRANCH   6   7
HETATM    7  C   UNL     1      31.261 -11.229  -6.141  1.00  0.00     0.001 C 
BRANCH   7   8
HETATM    8  C   UNL     1      30.617 -11.396  -7.521  1.00  0.00     0.000 C 
BRANCH   8   9
HETATM    9  C   UNL     1      31.617 -11.971  -8.531  1.00  0.00     0.000 C 
BRANCH   9  10
HETATM   10  C   UNL     1      32.558 -12.973  -7.853  1.00  0.00     0.004 C 
BRANCH  10  11
HETATM   11  C   UNL     1      34.001 -12.799  -8.335  1.00  0.00     0.027 C 
BRANCH  11  12
HETATM   12  C   UNL     1      34.371 -13.951  -9.237  1.00  0.00    -0.031 C 
HETATM   13  C   UNL     1      34.311 -13.972 -10.584  1.00  0.00    -0.031 C 
BRANCH  13  14
HETATM   14  C   UNL     1      33.853 -12.852 -11.495  1.00  0.00     0.027 C 
BRANCH  14  15
HETATM   15  C   UNL     1      32.708 -13.315 -12.414  1.00  0.00     0.004 C 
BRANCH  15  16
HETATM   16  C   UNL     1      31.910 -12.167 -13.064  1.00  0.00     0.000 C 
BRANCH  16  17
HETATM   17  C   UNL     1      30.576 -11.879 -12.357  1.00  0.00     0.000 C 
BRANCH  17  18
HETATM   18  C   UNL     1      30.602 -10.510 -11.664  1.00  0.00     0.000 C 
BRANCH  18  19
HETATM   19  C   UNL     1      31.774  -9.660 -12.169  1.00  0.00    -0.000 C 
BRANCH  19  20
HETATM   20  C   UNL     1      32.315  -8.751 -11.059  1.00  0.00    -0.005 C 
HETATM   21  C   UNL     1      33.459  -9.423 -10.306  1.00  0.00     0.005 C 
ENDBRANCH  19  20
ENDBRANCH  18  19
ENDBRANCH  17  18
ENDBRANCH  16  17
ENDBRANCH  15  16
ENDBRANCH  14  15
ENDBRANCH  13  14
ENDBRANCH  11  12
ENDBRANCH  10  11
ENDBRANCH   9  10
ENDBRANCH   8   9
ENDBRANCH   7   8
ENDBRANCH   6   7
ENDBRANCH   5   6
ENDBRANCH   3   5
ENDBRANCH   1   3
TORSDOF 16
ENDMDL
MODEL 14
REMARK VINA RESULT:      -4.3      1.886      3.673
REMARK  16 active torsions:
REMARK  status: ('A' for Active; 'I' for Inactive)
REMARK    1  A    between atoms: O_1  and  C_20 
REMARK    2  A    between atoms: C_3  and  C_4 
REMARK    3  A    between atoms: C_3  and  C_5 
REMARK    4  A    between atoms: C_4  and  C_8 
REMARK    5  A    between atoms: C_5  and  C_11 
REMARK    6  A    between atoms: C_6  and  C_7 
REMARK    7  A    between atoms: C_6  and  C_9 
REMARK    8  A    between atoms: C_7  and  C_10 
REMARK    9  A    between atoms: C_8  and  C_12 
REMARK   10  A    between atoms: C_9  and  C_13 
REMARK   11  A    between atoms: C_10  and  C_14 
REMARK   12  A    between atoms: C_11  and  C_15 
REMARK   13  A    between atoms: C_12  and  C_16 
REMARK   14  A    between atoms: C_13  and  C_17 
REMARK   15  A    between atoms: C_14  and  C_18 
REMARK   16  A    between atoms: C_18  and  C_20 
ROOT
HETATM    1  O   UNL     1      34.420  -8.172 -13.073  1.00  0.00    -0.776 OA
HETATM    2  H   UNL     1      34.989  -7.534 -13.526  1.00  0.00     0.167 HD
ENDROOT
BRANCH   1   3
HETATM    3  C   UNL     1      33.745  -7.843 -11.951  1.00  0.00     0.139 C 
HETATM    4  O   UNL     1      34.117  -6.892 -11.277  1.00  0.00    -0.650 OA
BRANCH   3   5
HETATM    5  C   UNL     1      32.544  -8.659 -11.554  1.00  0.00     0.110 C 
BRANCH   5   6
HETATM    6  C   UNL     1      32.412  -9.965 -12.351  1.00  0.00     0.010 C 
BRANCH   6   7
HETATM    7  C   UNL     1      30.970 -10.488 -12.314  1.00  0.00     0.001 C 
BRANCH   7   8
HETATM    8  C   UNL     1      30.240  -9.991 -11.061  1.00  0.00     0.000 C 
BRANCH   8   9
HETATM    9  C   UNL     1      30.263 -11.050  -9.953  1.00  0.00     0.000 C 
BRANCH   9  10
HETATM   10  C   UNL     1      28.839 -11.412  -9.518  1.00  0.00     0.004 C 
BRANCH  10  11
HETATM   11  C   UNL     1      28.423 -10.637  -8.265  1.00  0.00     0.027 C 
BRANCH  11  12
HETATM   12  C   UNL     1      28.785 -11.437  -7.037  1.00  0.00    -0.031 C 
HETATM   13  C   UNL     1      29.795 -11.185  -6.180  1.00  0.00    -0.031 C 
BRANCH  13  14
HETATM   14  C   UNL     1      30.797 -10.053  -6.257  1.00  0.00     0.027 C 
BRANCH  14  15
HETATM   15  C   UNL     1      32.159 -10.549  -6.774  1.00  0.00     0.004 C 
BRANCH  15  16
HETATM   16  C   UNL     1      32.463 -12.026  -6.450  1.00  0.00     0.000 C 
BRANCH  16  17
HETATM   17  C   UNL     1      32.374 -12.946  -7.679  1.00  0.00     0.000 C 
BRANCH  17  18
HETATM   18  C   UNL     1      33.750 -13.125  -8.336  1.00  0.00     0.000 C 
BRANCH  18  19
HETATM   19  C   UNL     1      33.851 -12.310  -9.631  1.00  0.00    -0.000 C 
BRANCH  19  20
HETATM   20  C   UNL     1      33.369 -13.127 -10.836  1.00  0.00    -0.005 C 
HETATM   21  C   UNL     1      34.409 -13.126 -11.952  1.00  0.00     0.005 C 
ENDBRANCH  19  20
ENDBRANCH  18  19
ENDBRANCH  17  18
ENDBRANCH  16  17
ENDBRANCH  15  16
ENDBRANCH  14  15
ENDBRANCH  13  14
ENDBRANCH  11  12
ENDBRANCH  10  11
ENDBRANCH   9  10
ENDBRANCH   8   9
ENDBRANCH   7   8
ENDBRANCH   6   7
ENDBRANCH   5   6
ENDBRANCH   3   5
ENDBRANCH   1   3
TORSDOF 16
ENDMDL
MODEL 15
REMARK VINA RESULT:      -4.3      5.037      7.433
REMARK  16 active torsions:
REMARK  status: ('A' for Active; 'I' for Inactive)
REMARK    1  A    between atoms: O_1  and  C_20 
REMARK    2  A    between atoms: C_3  and  C_4 
REMARK    3  A    between atoms: C_3  and  C_5 
REMARK    4  A    between atoms: C_4  and  C_8 
REMARK    5  A    between atoms: C_5  and  C_11 
REMARK    6  A    between atoms: C_6  and  C_7 
REMARK    7  A    between atoms: C_6  and  C_9 
REMARK    8  A    between atoms: C_7  and  C_10 
REMARK    9  A    between atoms: C_8  and  C_12 
REMARK   10  A    between atoms: C_9  and  C_13 
REMARK   11  A    between atoms: C_10  and  C_14 
REMARK   12  A    between atoms: C_11  and  C_15 
REMARK   13  A    between atoms: C_12  and  C_16 
REMARK   14  A    between atoms: C_13  and  C_17 
REMARK   15  A    between atoms: C_14  and  C_18 
REMARK   16  A    between atoms: C_18  and  C_20 
ROOT
HETATM    1  O   UNL     1      33.617 -14.051 -15.921  1.00  0.00    -0.776 OA
HETATM    2  H   UNL     1      32.796 -14.544 -16.060  1.00  0.00     0.167 HD
ENDROOT
BRANCH   1   3
HETATM    3  C   UNL     1      33.748 -13.170 -14.907  1.00  0.00     0.139 C 
HETATM    4  O   UNL     1      34.781 -13.146 -14.252  1.00  0.00    -0.650 OA
BRANCH   3   5
HETATM    5  C   UNL     1      32.611 -12.229 -14.605  1.00  0.00     0.110 C 
BRANCH   5   6
HETATM    6  C   UNL     1      32.549 -11.812 -13.129  1.00  0.00     0.010 C 
BRANCH   6   7
HETATM    7  C   UNL     1      32.468 -10.287 -12.991  1.00  0.00     0.001 C 
BRANCH   7   8
HETATM    8  C   UNL     1      31.479  -9.889 -11.890  1.00  0.00     0.000 C 
BRANCH   8   9
HETATM    9  C   UNL     1      30.968 -11.122 -11.136  1.00  0.00     0.000 C 
BRANCH   9  10
HETATM   10  C   UNL     1      29.444 -11.074 -10.985  1.00  0.00     0.004 C 
BRANCH  10  11
HETATM   11  C   UNL     1      28.785 -10.402 -12.193  1.00  0.00     0.027 C 
BRANCH  11  12
HETATM   12  C   UNL     1      28.528 -11.435 -13.263  1.00  0.00    -0.031 C 
HETATM   13  C   UNL     1      28.852 -11.341 -14.569  1.00  0.00    -0.031 C 
BRANCH  13  14
HETATM   14  C   UNL     1      29.538 -10.179 -15.257  1.00  0.00     0.027 C 
BRANCH  14  15
HETATM   15  C   UNL     1      29.637 -10.413 -16.775  1.00  0.00     0.004 C 
BRANCH  15  16
HETATM   16  C   UNL     1      29.939 -11.871 -17.176  1.00  0.00     0.000 C 
BRANCH  16  17
HETATM   17  C   UNL     1      31.193 -12.012 -18.055  1.00  0.00     0.000 C 
BRANCH  17  18
HETATM   18  C   UNL     1      31.310 -10.842 -19.041  1.00  0.00     0.000 C 
BRANCH  18  19
HETATM   19  C   UNL     1      30.426 -11.071 -20.272  1.00  0.00    -0.000 C 
BRANCH  19  20
HETATM   20  C   UNL     1      30.553  -9.910 -21.266  1.00  0.00    -0.005 C 
HETATM   21  C   UNL     1      31.827  -9.109 -21.018  1.00  0.00     0.005 C 
ENDBRANCH  19  20
ENDBRANCH  18  19
ENDBRANCH  17  18
ENDBRANCH  16  17
ENDBRANCH  15  16
ENDBRANCH  14  15
ENDBRANCH  13  14
ENDBRANCH  11  12
ENDBRANCH  10  11
ENDBRANCH   9  10
ENDBRANCH   8   9
ENDBRANCH   7   8
ENDBRANCH   6   7
ENDBRANCH   5   6
ENDBRANCH   3   5
ENDBRANCH   1   3
TORSDOF 16
ENDMDL
MODEL 16
REMARK VINA RESULT:      -4.3      3.856      5.740
REMARK  16 active torsions:
REMARK  status: ('A' for Active; 'I' for Inactive)
REMARK    1  A    between atoms: O_1  and  C_20 
REMARK    2  A    between atoms: C_3  and  C_4 
REMARK    3  A    between atoms: C_3  and  C_5 
REMARK    4  A    between atoms: C_4  and  C_8 
REMARK    5  A    between atoms: C_5  and  C_11 
REMARK    6  A    between atoms: C_6  and  C_7 
REMARK    7  A    between atoms: C_6  and  C_9 
REMARK    8  A    between atoms: C_7  and  C_10 
REMARK    9  A    between atoms: C_8  and  C_12 
REMARK   10  A    between atoms: C_9  and  C_13 
REMARK   11  A    between atoms: C_10  and  C_14 
REMARK   12  A    between atoms: C_11  and  C_15 
REMARK   13  A    between atoms: C_12  and  C_16 
REMARK   14  A    between atoms: C_13  and  C_17 
REMARK   15  A    between atoms: C_14  and  C_18 
REMARK   16  A    between atoms: C_18  and  C_20 
ROOT
HETATM    1  O   UNL     1      27.234 -11.573  -7.391  1.00  0.00    -0.776 OA
HETATM    2  H   UNL     1      26.739 -11.722  -8.210  1.00  0.00     0.167 HD
ENDROOT
BRANCH   1   3
HETATM    3  C   UNL     1      28.564 -11.347  -7.401  1.00  0.00     0.139 C 
HETATM    4  O   UNL     1      29.259 -11.774  -6.489  1.00  0.00    -0.650 OA
BRANCH   3   5
HETATM    5  C   UNL     1      29.165 -10.571  -8.543  1.00  0.00     0.110 C 
BRANCH   5   6
HETATM    6  C   UNL     1      28.858 -11.183  -9.917  1.00  0.00     0.010 C 
BRANCH   6   7
HETATM    7  C   UNL     1      29.703 -10.523 -11.014  1.00  0.00     0.001 C 
BRANCH   7   8
HETATM    8  C   UNL     1      30.757 -11.497 -11.552  1.00  0.00     0.000 C 
BRANCH   8   9
HETATM    9  C   UNL     1      32.073 -10.772 -11.857  1.00  0.00     0.000 C 
BRANCH   9  10
HETATM   10  C   UNL     1      31.880  -9.252 -11.806  1.00  0.00     0.004 C 
BRANCH  10  11
HETATM   11  C   UNL     1      32.751  -8.615 -10.721  1.00  0.00     0.027 C 
BRANCH  11  12
HETATM   12  C   UNL     1      33.828  -9.588 -10.305  1.00  0.00    -0.031 C 
HETATM   13  C   UNL     1      34.067 -10.042  -9.058  1.00  0.00    -0.031 C 
BRANCH  13  14
HETATM   14  C   UNL     1      33.318  -9.674  -7.794  1.00  0.00     0.027 C 
BRANCH  14  15
HETATM   15  C   UNL     1      32.596 -10.896  -7.199  1.00  0.00     0.004 C 
BRANCH  15  16
HETATM   16  C   UNL     1      32.387 -12.057  -8.193  1.00  0.00     0.000 C 
BRANCH  16  17
HETATM   17  C   UNL     1      33.020 -13.377  -7.723  1.00  0.00     0.000 C 
BRANCH  17  18
HETATM   18  C   UNL     1      34.093 -13.858  -8.709  1.00  0.00     0.000 C 
BRANCH  18  19
HETATM   19  C   UNL     1      33.733 -13.467 -10.147  1.00  0.00    -0.000 C 
BRANCH  19  20
HETATM   20  C   UNL     1      34.752 -14.031 -11.144  1.00  0.00    -0.005 C 
HETATM   21  C   UNL     1      34.054 -14.689 -12.331  1.00  0.00     0.005 C 
ENDBRANCH  19  20
ENDBRANCH  18  19
ENDBRANCH  17  18
ENDBRANCH  16  17
ENDBRANCH  15  16
ENDBRANCH  14  15
ENDBRANCH  13  14
ENDBRANCH  11  12
ENDBRANCH  10  11
ENDBRANCH   9  10
ENDBRANCH   8   9
ENDBRANCH   7   8
ENDBRANCH   6   7
ENDBRANCH   5   6
ENDBRANCH   3   5
ENDBRANCH   1   3
TORSDOF 16
ENDMDL
MODEL 17
REMARK VINA RESULT:      -4.3      5.939      8.451
REMARK  16 active torsions:
REMARK  status: ('A' for Active; 'I' for Inactive)
REMARK    1  A    between atoms: O_1  and  C_20 
REMARK    2  A    between atoms: C_3  and  C_4 
REMARK    3  A    between atoms: C_3  and  C_5 
REMARK    4  A    between atoms: C_4  and  C_8 
REMARK    5  A    between atoms: C_5  and  C_11 
REMARK    6  A    between atoms: C_6  and  C_7 
REMARK    7  A    between atoms: C_6  and  C_9 
REMARK    8  A    between atoms: C_7  and  C_10 
REMARK    9  A    between atoms: C_8  and  C_12 
REMARK   10  A    between atoms: C_9  and  C_13 
REMARK   11  A    between atoms: C_10  and  C_14 
REMARK   12  A    between atoms: C_11  and  C_15 
REMARK   13  A    between atoms: C_12  and  C_16 
REMARK   14  A    between atoms: C_13  and  C_17 
REMARK   15  A    between atoms: C_14  and  C_18 
REMARK   16  A    between atoms: C_18  and  C_20 
ROOT
HETATM    1  O   UNL     1      34.373  -9.474 -22.961  1.00  0.00    -0.776 OA
HETATM    2  H   UNL     1      35.135  -8.888 -23.078  1.00  0.00     0.167 HD
ENDROOT
BRANCH   1   3
HETATM    3  C   UNL     1      33.455  -9.253 -21.997  1.00  0.00     0.139 C 
HETATM    4  O   UNL     1      33.794  -8.726 -20.946  1.00  0.00    -0.650 OA
BRANCH   3   5
HETATM    5  C   UNL     1      32.026  -9.662 -22.241  1.00  0.00     0.110 C 
BRANCH   5   6
HETATM    6  C   UNL     1      31.670 -11.013 -21.606  1.00  0.00     0.010 C 
BRANCH   6   7
HETATM    7  C   UNL     1      30.767 -10.824 -20.381  1.00  0.00     0.001 C 
BRANCH   7   8
HETATM    8  C   UNL     1      31.584 -10.874 -19.086  1.00  0.00     0.000 C 
BRANCH   8   9
HETATM    9  C   UNL     1      30.808 -11.583 -17.970  1.00  0.00     0.000 C 
BRANCH   9  10
HETATM   10  C   UNL     1      29.324 -11.203 -18.015  1.00  0.00     0.004 C 
BRANCH  10  11
HETATM   11  C   UNL     1      28.693 -11.251 -16.621  1.00  0.00     0.027 C 
BRANCH  11  12
HETATM   12  C   UNL     1      29.712 -10.822 -15.593  1.00  0.00    -0.031 C 
HETATM   13  C   UNL     1      29.571 -10.861 -14.253  1.00  0.00    -0.031 C 
BRANCH  13  14
HETATM   14  C   UNL     1      28.361 -11.334 -13.476  1.00  0.00     0.027 C 
BRANCH  14  15
HETATM   15  C   UNL     1      28.726 -11.646 -12.014  1.00  0.00     0.004 C 
BRANCH  15  16
HETATM   16  C   UNL     1      29.668 -10.615 -11.359  1.00  0.00     0.000 C 
BRANCH  16  17
HETATM   17  C   UNL     1      30.752 -11.259 -10.478  1.00  0.00     0.000 C 
BRANCH  17  18
HETATM   18  C   UNL     1      30.555 -10.890  -9.002  1.00  0.00     0.000 C 
BRANCH  18  19
HETATM   19  C   UNL     1      29.066 -10.855  -8.638  1.00  0.00    -0.000 C 
BRANCH  19  20
HETATM   20  C   UNL     1      28.788 -11.668  -7.368  1.00  0.00    -0.005 C 
HETATM   21  C   UNL     1      29.332 -10.959  -6.131  1.00  0.00     0.005 C 
ENDBRANCH  19  20
ENDBRANCH  18  19
ENDBRANCH  17  18
ENDBRANCH  16  17
ENDBRANCH  15  16
ENDBRANCH  14  15
ENDBRANCH  13  14
ENDBRANCH  11  12
ENDBRANCH  10  11
ENDBRANCH   9  10
ENDBRANCH   8   9
ENDBRANCH   7   8
ENDBRANCH   6   7
ENDBRANCH   5   6
ENDBRANCH   3   5
ENDBRANCH   1   3
TORSDOF 16
ENDMDL
MODEL 18
REMARK VINA RESULT:      -4.3      2.352      5.256
REMARK  16 active torsions:
REMARK  status: ('A' for Active; 'I' for Inactive)
REMARK    1  A    between atoms: O_1  and  C_20 
REMARK    2  A    between atoms: C_3  and  C_4 
REMARK    3  A    between atoms: C_3  and  C_5 
REMARK    4  A    between atoms: C_4  and  C_8 
REMARK    5  A    between atoms: C_5  and  C_11 
REMARK    6  A    between atoms: C_6  and  C_7 
REMARK    7  A    between atoms: C_6  and  C_9 
REMARK    8  A    between atoms: C_7  and  C_10 
REMARK    9  A    between atoms: C_8  and  C_12 
REMARK   10  A    between atoms: C_9  and  C_13 
REMARK   11  A    between atoms: C_10  and  C_14 
REMARK   12  A    between atoms: C_11  and  C_15 
REMARK   13  A    between atoms: C_12  and  C_16 
REMARK   14  A    between atoms: C_13  and  C_17 
REMARK   15  A    between atoms: C_14  and  C_18 
REMARK   16  A    between atoms: C_18  and  C_20 
ROOT
HETATM    1  O   UNL     1      34.464  -7.921  -7.997  1.00  0.00    -0.776 OA
HETATM    2  H   UNL     1      35.301  -7.589  -8.351  1.00  0.00     0.167 HD
ENDROOT
BRANCH   1   3
HETATM    3  C   UNL     1      33.755  -8.873  -8.639  1.00  0.00     0.139 C 
HETATM    4  O   UNL     1      33.697  -8.867  -9.862  1.00  0.00    -0.650 OA
BRANCH   3   5
HETATM    5  C   UNL     1      33.048  -9.929  -7.830  1.00  0.00     0.110 C 
BRANCH   5   6
HETATM    6  C   UNL     1      33.353 -11.357  -8.303  1.00  0.00     0.010 C 
BRANCH   6   7
HETATM    7  C   UNL     1      32.060 -12.131  -8.585  1.00  0.00     0.001 C 
BRANCH   7   8
HETATM    8  C   UNL     1      30.881 -11.525  -7.815  1.00  0.00     0.000 C 
BRANCH   8   9
HETATM    9  C   UNL     1      29.746 -11.129  -8.767  1.00  0.00     0.000 C 
BRANCH   9  10
HETATM   10  C   UNL     1      30.190 -11.264 -10.227  1.00  0.00     0.004 C 
BRANCH  10  11
HETATM   11  C   UNL     1      29.338 -10.391 -11.153  1.00  0.00     0.027 C 
BRANCH  11  12
HETATM   12  C   UNL     1      28.390 -11.267 -11.936  1.00  0.00    -0.031 C 
HETATM   13  C   UNL     1      28.337 -11.399 -13.277  1.00  0.00    -0.031 C 
BRANCH  13  14
HETATM   14  C   UNL     1      29.206 -10.697 -14.299  1.00  0.00     0.027 C 
BRANCH  14  15
HETATM   15  C   UNL     1      30.616 -11.310 -14.345  1.00  0.00     0.004 C 
BRANCH  15  16
HETATM   16  C   UNL     1      31.753 -10.317 -14.025  1.00  0.00     0.000 C 
BRANCH  16  17
HETATM   17  C   UNL     1      32.902 -10.950 -13.224  1.00  0.00     0.000 C 
BRANCH  17  18
HETATM   18  C   UNL     1      32.504 -12.328 -12.679  1.00  0.00     0.000 C 
BRANCH  18  19
HETATM   19  C   UNL     1      33.671 -13.317 -12.779  1.00  0.00    -0.000 C 
BRANCH  19  20
HETATM   20  C   UNL     1      33.788 -14.164 -11.506  1.00  0.00    -0.005 C 
HETATM   21  C   UNL     1      35.142 -13.961 -10.833  1.00  0.00     0.005 C 
ENDBRANCH  19  20
ENDBRANCH  18  19
ENDBRANCH  17  18
ENDBRANCH  16  17
ENDBRANCH  15  16
ENDBRANCH  14  15
ENDBRANCH  13  14
ENDBRANCH  11  12
ENDBRANCH  10  11
ENDBRANCH   9  10
ENDBRANCH   8   9
ENDBRANCH   7   8
ENDBRANCH   6   7
ENDBRANCH   5   6
ENDBRANCH   3   5
ENDBRANCH   1   3
TORSDOF 16
ENDMDL
MODEL 19
REMARK VINA RESULT:      -4.3      5.082      7.328
REMARK  16 active torsions:
REMARK  status: ('A' for Active; 'I' for Inactive)
REMARK    1  A    between atoms: O_1  and  C_20 
REMARK    2  A    between atoms: C_3  and  C_4 
REMARK    3  A    between atoms: C_3  and  C_5 
REMARK    4  A    between atoms: C_4  and  C_8 
REMARK    5  A    between atoms: C_5  and  C_11 
REMARK    6  A    between atoms: C_6  and  C_7 
REMARK    7  A    between atoms: C_6  and  C_9 
REMARK    8  A    between atoms: C_7  and  C_10 
REMARK    9  A    between atoms: C_8  and  C_12 
REMARK   10  A    between atoms: C_9  and  C_13 
REMARK   11  A    between atoms: C_10  and  C_14 
REMARK   12  A    between atoms: C_11  and  C_15 
REMARK   13  A    between atoms: C_12  and  C_16 
REMARK   14  A    between atoms: C_13  and  C_17 
REMARK   15  A    between atoms: C_14  and  C_18 
REMARK   16  A    between atoms: C_18  and  C_20 
ROOT
HETATM    1  O   UNL     1      28.105 -11.934  -2.284  1.00  0.00    -0.776 OA
HETATM    2  H   UNL     1      27.343 -11.521  -2.715  1.00  0.00     0.167 HD
ENDROOT
BRANCH   1   3
HETATM    3  C   UNL     1      29.137 -11.199  -1.821  1.00  0.00     0.139 C 
HETATM    4  O   UNL     1      28.923 -10.260  -1.065  1.00  0.00    -0.650 OA
BRANCH   3   5
HETATM    5  C   UNL     1      30.537 -11.553  -2.248  1.00  0.00     0.110 C 
BRANCH   5   6
HETATM    6  C   UNL     1      31.408 -10.323  -2.539  1.00  0.00     0.010 C 
BRANCH   6   7
HETATM    7  C   UNL     1      32.071 -10.432  -3.918  1.00  0.00     0.001 C 
BRANCH   7   8
HETATM    8  C   UNL     1      31.256 -11.340  -4.846  1.00  0.00     0.000 C 
BRANCH   8   9
HETATM    9  C   UNL     1      30.443 -10.515  -5.851  1.00  0.00     0.000 C 
BRANCH   9  10
HETATM   10  C   UNL     1      29.068 -11.149  -6.088  1.00  0.00     0.004 C 
BRANCH  10  11
HETATM   11  C   UNL     1      28.916 -11.629  -7.534  1.00  0.00     0.027 C 
BRANCH  11  12
HETATM   12  C   UNL     1      30.033 -11.055  -8.373  1.00  0.00    -0.031 C 
HETATM   13  C   UNL     1      30.038 -10.901  -9.712  1.00  0.00    -0.031 C 
BRANCH  13  14
HETATM   14  C   UNL     1      28.933 -11.275 -10.678  1.00  0.00     0.027 C 
BRANCH  14  15
HETATM   15  C   UNL     1      29.171 -10.652 -12.065  1.00  0.00     0.004 C 
BRANCH  15  16
HETATM   16  C   UNL     1      30.644 -10.660 -12.522  1.00  0.00     0.000 C 
BRANCH  16  17
HETATM   17  C   UNL     1      30.809 -10.904 -14.031  1.00  0.00     0.000 C 
BRANCH  17  18
HETATM   18  C   UNL     1      29.446 -11.017 -14.725  1.00  0.00     0.000 C 
BRANCH  18  19
HETATM   19  C   UNL     1      29.440 -10.249 -16.052  1.00  0.00    -0.000 C 
BRANCH  19  20
HETATM   20  C   UNL     1      30.852  -9.787 -16.429  1.00  0.00    -0.005 C 
HETATM   21  C   UNL     1      31.331 -10.467 -17.707  1.00  0.00     0.005 C 
ENDBRANCH  19  20
ENDBRANCH  18  19
ENDBRANCH  17  18
ENDBRANCH  16  17
ENDBRANCH  15  16
ENDBRANCH  14  15
ENDBRANCH  13  14
ENDBRANCH  11  12
ENDBRANCH  10  11
ENDBRANCH   9  10
ENDBRANCH   8   9
ENDBRANCH   7   8
ENDBRANCH   6   7
ENDBRANCH   5   6
ENDBRANCH   3   5
ENDBRANCH   1   3
TORSDOF 16
ENDMDL
MODEL 20
REMARK VINA RESULT:      -4.2      5.408      8.044
REMARK  16 active torsions:
REMARK  status: ('A' for Active; 'I' for Inactive)
REMARK    1  A    between atoms: O_1  and  C_20 
REMARK    2  A    between atoms: C_3  and  C_4 
REMARK    3  A    between atoms: C_3  and  C_5 
REMARK    4  A    between atoms: C_4  and  C_8 
REMARK    5  A    between atoms: C_5  and  C_11 
REMARK    6  A    between atoms: C_6  and  C_7 
REMARK    7  A    between atoms: C_6  and  C_9 
REMARK    8  A    between atoms: C_7  and  C_10 
REMARK    9  A    between atoms: C_8  and  C_12 
REMARK   10  A    between atoms: C_9  and  C_13 
REMARK   11  A    between atoms: C_10  and  C_14 
REMARK   12  A    between atoms: C_11  and  C_15 
REMARK   13  A    between atoms: C_12  and  C_16 
REMARK   14  A    between atoms: C_13  and  C_17 
REMARK   15  A    between atoms: C_14  and  C_18 
REMARK   16  A    between atoms: C_18  and  C_20 
ROOT
HETATM    1  O   UNL     1      34.035  -8.525 -19.095  1.00  0.00    -0.776 OA
HETATM    2  H   UNL     1      34.238  -9.222 -18.454  1.00  0.00     0.167 HD
ENDROOT
BRANCH   1   3
HETATM    3  C   UNL     1      33.623  -8.816 -20.346  1.00  0.00     0.139 C 
HETATM    4  O   UNL     1      34.008  -8.135 -21.287  1.00  0.00    -0.650 OA
BRANCH   3   5
HETATM    5  C   UNL     1      32.691  -9.981 -20.557  1.00  0.00     0.110 C 
BRANCH   5   6
HETATM    6  C   UNL     1      31.233  -9.555 -20.778  1.00  0.00     0.010 C 
BRANCH   6   7
HETATM    7  C   UNL     1      30.269 -10.700 -20.444  1.00  0.00     0.001 C 
BRANCH   7   8
HETATM    8  C   UNL     1      30.503 -11.214 -19.019  1.00  0.00     0.000 C 
BRANCH   8   9
HETATM    9  C   UNL     1      29.255 -11.019 -18.150  1.00  0.00     0.000 C 
BRANCH   9  10
HETATM   10  C   UNL     1      29.637 -10.500 -16.760  1.00  0.00     0.004 C 
BRANCH  10  11
HETATM   11  C   UNL     1      31.156 -10.475 -16.571  1.00  0.00     0.027 C 
BRANCH  11  12
HETATM   12  C   UNL     1      31.632  -9.043 -16.519  1.00  0.00    -0.031 C 
HETATM   13  C   UNL     1      32.736  -8.582 -15.897  1.00  0.00    -0.031 C 
BRANCH  13  14
HETATM   14  C   UNL     1      33.742  -9.391 -15.106  1.00  0.00     0.027 C 
BRANCH  14  15
HETATM   15  C   UNL     1      33.388  -9.410 -13.609  1.00  0.00     0.004 C 
BRANCH  15  16
HETATM   16  C   UNL     1      32.845 -10.761 -13.100  1.00  0.00     0.000 C 
BRANCH  16  17
HETATM   17  C   UNL     1      31.554 -10.624 -12.276  1.00  0.00     0.000 C 
BRANCH  17  18
HETATM   18  C   UNL     1      30.327 -11.035 -13.100  1.00  0.00     0.000 C 
BRANCH  18  19
HETATM   19  C   UNL     1      29.029 -10.715 -12.350  1.00  0.00    -0.000 C 
BRANCH  19  20
HETATM   20  C   UNL     1      29.321 -10.193 -10.938  1.00  0.00    -0.005 C 
HETATM   21  C   UNL     1      28.973 -11.238  -9.882  1.00  0.00     0.005 C 
ENDBRANCH  19  20
ENDBRANCH  18  19
ENDBRANCH  17  18
ENDBRANCH  16  17
ENDBRANCH  15  16
ENDBRANCH  14  15
ENDBRANCH  13  14
ENDBRANCH  11  12
ENDBRANCH  10  11
ENDBRANCH   9  10
ENDBRANCH   8   9
ENDBRANCH   7   8
ENDBRANCH   6   7
ENDBRANCH   5   6
ENDBRANCH   3   5
ENDBRANCH   1   3
TORSDOF 16
ENDMDL
