REMARK  15 active torsions:
REMARK  status: ('A' for Active; 'I' for Inactive)
REMARK    1  A    between atoms: O_1  and  C_23 
REMARK    2  A    between atoms: C_3  and  C_7 
REMARK    3  A    between atoms: C_3  and  C_8 
REMARK    4  A    between atoms: C_4  and  C_10 
REMARK    5  A    between atoms: C_4  and  C_11 
REMARK    6  A    between atoms: C_5  and  C_12 
REMARK    7  A    between atoms: C_5  and  C_13 
REMARK    8  A    between atoms: C_6  and  C_15 
REMARK    9  A    between atoms: C_6  and  C_16 
REMARK   10  A    between atoms: C_7  and  C_23 
REMARK   11  A    between atoms: C_9  and  C_17 
REMARK   12  A    between atoms: C_9  and  C_18 
REMARK   13  A    between atoms: C_14  and  C_19 
REMARK   14  A    between atoms: C_14  and  C_20 
REMARK   15  A    between atoms: C_21  and  C_22 
ROOT
HETATM    1  O   UNL     1      -3.246  -1.970   1.573  1.00  0.00    -0.776 OA
HETATM    2  H   UNL     1      -3.129  -2.792   2.069  1.00  0.00     0.167 HD
ENDROOT
BRANCH   1   3
HETATM    3  C   UNL     1      -3.448  -1.976   0.238  1.00  0.00     0.139 C 
HETATM    4  O   UNL     1      -3.492  -3.036  -0.370  1.00  0.00    -0.650 OA
BRANCH   3   5
HETATM    5  C   UNL     1      -3.622  -0.677  -0.496  1.00  0.00     0.113 C 
BRANCH   5   6
HETATM    6  C   UNL     1      -2.526  -0.494  -1.552  1.00  0.00     0.037 C 
BRANCH   6   7
HETATM    7  C   UNL     1      -2.712   0.809  -2.292  1.00  0.00    -0.030 C 
HETATM    8  C   UNL     1      -1.810   1.805  -2.422  1.00  0.00    -0.027 C 
BRANCH   8   9
HETATM    9  C   UNL     1      -0.405   1.855  -1.861  1.00  0.00     0.053 C 
BRANCH   9  10
HETATM   10  C   UNL     1      -0.185   3.124  -1.077  1.00  0.00    -0.027 C 
HETATM   11  C   UNL     1      -0.783   3.443   0.085  1.00  0.00    -0.027 C 
BRANCH  11  12
HETATM   12  C   UNL     1      -1.740   2.563   0.846  1.00  0.00     0.053 C 
BRANCH  12  13
HETATM   13  C   UNL     1      -1.376   2.511   2.309  1.00  0.00    -0.027 C 
HETATM   14  C   UNL     1      -0.264   1.970   2.841  1.00  0.00    -0.027 C 
BRANCH  14  15
HETATM   15  C   UNL     1       0.826   1.259   2.084  1.00  0.00     0.053 C 
BRANCH  15  16
HETATM   16  C   UNL     1       1.054  -0.092   2.725  1.00  0.00    -0.027 C 
HETATM   17  C   UNL     1       0.944  -1.309   2.155  1.00  0.00    -0.027 C 
BRANCH  17  18
HETATM   18  C   UNL     1       0.583  -1.614   0.725  1.00  0.00     0.053 C 
BRANCH  18  19
HETATM   19  C   UNL     1       1.535  -2.631   0.140  1.00  0.00    -0.027 C 
HETATM   20  C   UNL     1       2.260  -2.521  -0.992  1.00  0.00    -0.027 C 
BRANCH  20  21
HETATM   21  C   UNL     1       2.332  -1.329  -1.914  1.00  0.00     0.053 C 
BRANCH  21  22
HETATM   22  C   UNL     1       3.765  -1.014  -2.275  1.00  0.00    -0.027 C 
HETATM   23  C   UNL     1       4.758  -0.660  -1.436  1.00  0.00    -0.031 C 
BRANCH  23  24
HETATM   24  C   UNL     1       4.651  -0.481   0.056  1.00  0.00     0.022 C 
HETATM   25  C   UNL     1       3.829   0.743   0.439  1.00  0.00     0.009 C 
ENDBRANCH  23  24
ENDBRANCH  21  22
ENDBRANCH  20  21
ENDBRANCH  18  19
ENDBRANCH  17  18
ENDBRANCH  15  16
ENDBRANCH  14  15
ENDBRANCH  12  13
ENDBRANCH  11  12
ENDBRANCH   9  10
ENDBRANCH   8   9
ENDBRANCH   6   7
ENDBRANCH   5   6
ENDBRANCH   3   5
ENDBRANCH   1   3
TORSDOF 15
