MODEL 1
REMARK VINA RESULT:      -5.6      0.000      0.000
REMARK  11 active torsions:
REMARK  status: ('A' for Active; 'I' for Inactive)
REMARK    1  A    between atoms: O_1  and  C_14 
REMARK    2  A    between atoms: C_3  and  C_4 
REMARK    3  A    between atoms: C_3  and  C_5 
REMARK    4  A    between atoms: C_4  and  C_6 
REMARK    5  A    between atoms: C_5  and  C_7 
REMARK    6  A    between atoms: C_6  and  C_8 
REMARK    7  A    between atoms: C_7  and  C_9 
REMARK    8  A    between atoms: C_8  and  C_10 
REMARK    9  A    between atoms: C_9  and  C_11 
REMARK   10  A    between atoms: C_10  and  C_12 
REMARK   11  A    between atoms: C_12  and  C_14 
ROOT
HETATM    1  O   UNL     1      28.306   9.256  -8.825  1.00  0.00    -0.776 OA
HETATM    2  H   UNL     1      28.529   8.556  -9.455  1.00  0.00     0.167 HD
ENDROOT
BRANCH   1   3
HETATM    3  C   UNL     1      28.253   9.019  -7.497  1.00  0.00     0.139 C 
HETATM    4  O   UNL     1      29.286   8.999  -6.843  1.00  0.00    -0.650 OA
BRANCH   3   5
HETATM    5  C   UNL     1      26.913   8.782  -6.850  1.00  0.00     0.110 C 
BRANCH   5   6
HETATM    6  C   UNL     1      25.788   9.623  -7.470  1.00  0.00     0.010 C 
BRANCH   6   7
HETATM    7  C   UNL     1      24.806   8.738  -8.247  1.00  0.00     0.001 C 
BRANCH   7   8
HETATM    8  C   UNL     1      24.170   9.512  -9.409  1.00  0.00     0.000 C 
BRANCH   8   9
HETATM    9  C   UNL     1      25.217   9.871 -10.470  1.00  0.00     0.000 C 
BRANCH   9  10
HETATM   10  C   UNL     1      25.510   8.675 -11.383  1.00  0.00     0.000 C 
BRANCH  10  11
HETATM   11  C   UNL     1      25.851   9.137 -12.805  1.00  0.00     0.000 C 
BRANCH  11  12
HETATM   12  C   UNL     1      24.602   9.155 -13.693  1.00  0.00     0.000 C 
BRANCH  12  13
HETATM   13  C   UNL     1      24.845   9.971 -14.969  1.00  0.00    -0.000 C 
BRANCH  13  14
HETATM   14  C   UNL     1      25.532   9.119 -16.042  1.00  0.00    -0.005 C 
HETATM   15  C   UNL     1      24.778   9.189 -17.367  1.00  0.00     0.005 C 
ENDBRANCH  13  14
ENDBRANCH  12  13
ENDBRANCH  11  12
ENDBRANCH  10  11
ENDBRANCH   9  10
ENDBRANCH   8   9
ENDBRANCH   7   8
ENDBRANCH   6   7
ENDBRANCH   5   6
ENDBRANCH   3   5
ENDBRANCH   1   3
TORSDOF 11
ENDMDL
MODEL 2
REMARK VINA RESULT:      -5.3      2.866      6.366
REMARK  11 active torsions:
REMARK  status: ('A' for Active; 'I' for Inactive)
REMARK    1  A    between atoms: O_1  and  C_14 
REMARK    2  A    between atoms: C_3  and  C_4 
REMARK    3  A    between atoms: C_3  and  C_5 
REMARK    4  A    between atoms: C_4  and  C_6 
REMARK    5  A    between atoms: C_5  and  C_7 
REMARK    6  A    between atoms: C_6  and  C_8 
REMARK    7  A    between atoms: C_7  and  C_9 
REMARK    8  A    between atoms: C_8  and  C_10 
REMARK    9  A    between atoms: C_9  and  C_11 
REMARK   10  A    between atoms: C_10  and  C_12 
REMARK   11  A    between atoms: C_12  and  C_14 
ROOT
HETATM    1  O   UNL     1      31.327   8.064 -13.941  1.00  0.00    -0.776 OA
HETATM    2  H   UNL     1      32.283   7.994 -14.080  1.00  0.00     0.167 HD
ENDROOT
BRANCH   1   3
HETATM    3  C   UNL     1      30.804   8.953 -13.071  1.00  0.00     0.139 C 
HETATM    4  O   UNL     1      31.536   9.754 -12.509  1.00  0.00    -0.650 OA
BRANCH   3   5
HETATM    5  C   UNL     1      29.320   8.936 -12.814  1.00  0.00     0.110 C 
BRANCH   5   6
HETATM    6  C   UNL     1      28.518   9.728 -13.857  1.00  0.00     0.010 C 
BRANCH   6   7
HETATM    7  C   UNL     1      27.025   9.389 -13.776  1.00  0.00     0.001 C 
BRANCH   7   8
HETATM    8  C   UNL     1      26.652   8.882 -12.378  1.00  0.00     0.000 C 
BRANCH   8   9
HETATM    9  C   UNL     1      25.202   9.242 -12.030  1.00  0.00     0.000 C 
BRANCH   9  10
HETATM   10  C   UNL     1      24.797   8.651 -10.675  1.00  0.00     0.000 C 
BRANCH  10  11
HETATM   11  C   UNL     1      25.280   9.537  -9.520  1.00  0.00     0.000 C 
BRANCH  11  12
HETATM   12  C   UNL     1      24.539   9.200  -8.221  1.00  0.00     0.000 C 
BRANCH  12  13
HETATM   13  C   UNL     1      25.497   9.210  -7.024  1.00  0.00    -0.000 C 
BRANCH  13  14
HETATM   14  C   UNL     1      26.944   8.981  -7.475  1.00  0.00    -0.005 C 
HETATM   15  C   UNL     1      27.935   9.470  -6.423  1.00  0.00     0.005 C 
ENDBRANCH  13  14
ENDBRANCH  12  13
ENDBRANCH  11  12
ENDBRANCH  10  11
ENDBRANCH   9  10
ENDBRANCH   8   9
ENDBRANCH   7   8
ENDBRANCH   6   7
ENDBRANCH   5   6
ENDBRANCH   3   5
ENDBRANCH   1   3
TORSDOF 11
ENDMDL
MODEL 3
REMARK VINA RESULT:      -5.2      3.818      7.755
REMARK  11 active torsions:
REMARK  status: ('A' for Active; 'I' for Inactive)
REMARK    1  A    between atoms: O_1  and  C_14 
REMARK    2  A    between atoms: C_3  and  C_4 
REMARK    3  A    between atoms: C_3  and  C_5 
REMARK    4  A    between atoms: C_4  and  C_6 
REMARK    5  A    between atoms: C_5  and  C_7 
REMARK    6  A    between atoms: C_6  and  C_8 
REMARK    7  A    between atoms: C_7  and  C_9 
REMARK    8  A    between atoms: C_8  and  C_10 
REMARK    9  A    between atoms: C_9  and  C_11 
REMARK   10  A    between atoms: C_10  and  C_12 
REMARK   11  A    between atoms: C_12  and  C_14 
ROOT
HETATM    1  O   UNL     1      28.468   9.306 -19.272  1.00  0.00    -0.776 OA
HETATM    2  H   UNL     1      29.158   9.869 -19.652  1.00  0.00     0.167 HD
ENDROOT
BRANCH   1   3
HETATM    3  C   UNL     1      28.159   9.358 -17.959  1.00  0.00     0.139 C 
HETATM    4  O   UNL     1      29.038   9.212 -17.122  1.00  0.00    -0.650 OA
BRANCH   3   5
HETATM    5  C   UNL     1      26.727   9.594 -17.555  1.00  0.00     0.110 C 
BRANCH   5   6
HETATM    6  C   UNL     1      26.163   8.483 -16.656  1.00  0.00     0.010 C 
BRANCH   6   7
HETATM    7  C   UNL     1      25.117   9.042 -15.684  1.00  0.00     0.001 C 
BRANCH   7   8
HETATM    8  C   UNL     1      25.775   9.520 -14.384  1.00  0.00     0.000 C 
BRANCH   8   9
HETATM    9  C   UNL     1      24.847   9.298 -13.183  1.00  0.00     0.000 C 
BRANCH   9  10
HETATM   10  C   UNL     1      25.652   9.083 -11.896  1.00  0.00     0.000 C 
BRANCH  10  11
HETATM   11  C   UNL     1      24.740   9.114 -10.664  1.00  0.00     0.000 C 
BRANCH  11  12
HETATM   12  C   UNL     1      25.484   9.671  -9.444  1.00  0.00     0.000 C 
BRANCH  12  13
HETATM   13  C   UNL     1      26.990   9.765  -9.714  1.00  0.00    -0.000 C 
BRANCH  13  14
HETATM   14  C   UNL     1      27.797   9.304  -8.495  1.00  0.00    -0.005 C 
HETATM   15  C   UNL     1      26.886   9.042  -7.299  1.00  0.00     0.005 C 
ENDBRANCH  13  14
ENDBRANCH  12  13
ENDBRANCH  11  12
ENDBRANCH  10  11
ENDBRANCH   9  10
ENDBRANCH   8   9
ENDBRANCH   7   8
ENDBRANCH   6   7
ENDBRANCH   5   6
ENDBRANCH   3   5
ENDBRANCH   1   3
TORSDOF 11
ENDMDL
MODEL 4
REMARK VINA RESULT:      -4.9     25.198     26.068
REMARK  11 active torsions:
REMARK  status: ('A' for Active; 'I' for Inactive)
REMARK    1  A    between atoms: O_1  and  C_14 
REMARK    2  A    between atoms: C_3  and  C_4 
REMARK    3  A    between atoms: C_3  and  C_5 
REMARK    4  A    between atoms: C_4  and  C_6 
REMARK    5  A    between atoms: C_5  and  C_7 
REMARK    6  A    between atoms: C_6  and  C_8 
REMARK    7  A    between atoms: C_7  and  C_9 
REMARK    8  A    between atoms: C_8  and  C_10 
REMARK    9  A    between atoms: C_9  and  C_11 
REMARK   10  A    between atoms: C_10  and  C_12 
REMARK   11  A    between atoms: C_12  and  C_14 
ROOT
HETATM    1  O   UNL     1      35.161 -13.058 -17.368  1.00  0.00    -0.776 OA
HETATM    2  H   UNL     1      35.153 -12.521 -18.173  1.00  0.00     0.167 HD
ENDROOT
BRANCH   1   3
HETATM    3  C   UNL     1      35.192 -14.407 -17.421  1.00  0.00     0.139 C 
HETATM    4  O   UNL     1      34.147 -15.035 -17.504  1.00  0.00    -0.650 OA
BRANCH   3   5
HETATM    5  C   UNL     1      36.525 -15.109 -17.375  1.00  0.00     0.110 C 
BRANCH   5   6
HETATM    6  C   UNL     1      36.710 -15.967 -16.115  1.00  0.00     0.010 C 
BRANCH   6   7
HETATM    7  C   UNL     1      37.338 -15.149 -14.981  1.00  0.00     0.001 C 
BRANCH   7   8
HETATM    8  C   UNL     1      36.703 -15.504 -13.630  1.00  0.00     0.000 C 
BRANCH   8   9
HETATM    9  C   UNL     1      35.446 -14.664 -13.375  1.00  0.00     0.000 C 
BRANCH   9  10
HETATM   10  C   UNL     1      34.216 -15.559 -13.179  1.00  0.00     0.000 C 
BRANCH  10  11
HETATM   11  C   UNL     1      33.111 -15.205 -14.181  1.00  0.00     0.000 C 
BRANCH  11  12
HETATM   12  C   UNL     1      33.020 -13.689 -14.388  1.00  0.00     0.000 C 
BRANCH  12  13
HETATM   13  C   UNL     1      31.620 -13.170 -14.037  1.00  0.00    -0.000 C 
BRANCH  13  14
HETATM   14  C   UNL     1      31.395 -13.178 -12.521  1.00  0.00    -0.005 C 
HETATM   15  C   UNL     1      32.254 -12.123 -11.830  1.00  0.00     0.005 C 
ENDBRANCH  13  14
ENDBRANCH  12  13
ENDBRANCH  11  12
ENDBRANCH  10  11
ENDBRANCH   9  10
ENDBRANCH   8   9
ENDBRANCH   7   8
ENDBRANCH   6   7
ENDBRANCH   5   6
ENDBRANCH   3   5
ENDBRANCH   1   3
TORSDOF 11
ENDMDL
MODEL 5
REMARK VINA RESULT:      -4.8     24.928     25.630
REMARK  11 active torsions:
REMARK  status: ('A' for Active; 'I' for Inactive)
REMARK    1  A    between atoms: O_1  and  C_14 
REMARK    2  A    between atoms: C_3  and  C_4 
REMARK    3  A    between atoms: C_3  and  C_5 
REMARK    4  A    between atoms: C_4  and  C_6 
REMARK    5  A    between atoms: C_5  and  C_7 
REMARK    6  A    between atoms: C_6  and  C_8 
REMARK    7  A    between atoms: C_7  and  C_9 
REMARK    8  A    between atoms: C_8  and  C_10 
REMARK    9  A    between atoms: C_9  and  C_11 
REMARK   10  A    between atoms: C_10  and  C_12 
REMARK   11  A    between atoms: C_12  and  C_14 
ROOT
HETATM    1  O   UNL     1      34.686 -12.135 -12.516  1.00  0.00    -0.776 OA
HETATM    2  H   UNL     1      35.137 -11.802 -11.727  1.00  0.00     0.167 HD
ENDROOT
BRANCH   1   3
HETATM    3  C   UNL     1      33.361 -11.952 -12.699  1.00  0.00     0.139 C 
HETATM    4  O   UNL     1      32.717 -11.312 -11.880  1.00  0.00    -0.650 OA
BRANCH   3   5
HETATM    5  C   UNL     1      32.703 -12.548 -13.917  1.00  0.00     0.110 C 
BRANCH   5   6
HETATM    6  C   UNL     1      31.685 -13.647 -13.575  1.00  0.00     0.010 C 
BRANCH   6   7
HETATM    7  C   UNL     1      32.127 -15.001 -14.141  1.00  0.00     0.001 C 
BRANCH   7   8
HETATM    8  C   UNL     1      33.539 -15.363 -13.662  1.00  0.00     0.000 C 
BRANCH   8   9
HETATM    9  C   UNL     1      33.570 -15.561 -12.142  1.00  0.00     0.000 C 
BRANCH   9  10
HETATM   10  C   UNL     1      35.011 -15.585 -11.619  1.00  0.00     0.000 C 
BRANCH  10  11
HETATM   11  C   UNL     1      35.986 -16.041 -12.711  1.00  0.00     0.000 C 
BRANCH  11  12
HETATM   12  C   UNL     1      37.235 -15.152 -12.738  1.00  0.00     0.000 C 
BRANCH  12  13
HETATM   13  C   UNL     1      37.987 -15.301 -14.067  1.00  0.00    -0.000 C 
BRANCH  13  14
HETATM   14  C   UNL     1      37.055 -15.046 -15.257  1.00  0.00    -0.005 C 
HETATM   15  C   UNL     1      37.053 -16.230 -16.220  1.00  0.00     0.005 C 
ENDBRANCH  13  14
ENDBRANCH  12  13
ENDBRANCH  11  12
ENDBRANCH  10  11
ENDBRANCH   9  10
ENDBRANCH   8   9
ENDBRANCH   7   8
ENDBRANCH   6   7
ENDBRANCH   5   6
ENDBRANCH   3   5
ENDBRANCH   1   3
TORSDOF 11
ENDMDL
MODEL 6
REMARK VINA RESULT:      -4.8     25.212     26.361
REMARK  11 active torsions:
REMARK  status: ('A' for Active; 'I' for Inactive)
REMARK    1  A    between atoms: O_1  and  C_14 
REMARK    2  A    between atoms: C_3  and  C_4 
REMARK    3  A    between atoms: C_3  and  C_5 
REMARK    4  A    between atoms: C_4  and  C_6 
REMARK    5  A    between atoms: C_5  and  C_7 
REMARK    6  A    between atoms: C_6  and  C_8 
REMARK    7  A    between atoms: C_7  and  C_9 
REMARK    8  A    between atoms: C_8  and  C_10 
REMARK    9  A    between atoms: C_9  and  C_11 
REMARK   10  A    between atoms: C_10  and  C_12 
REMARK   11  A    between atoms: C_12  and  C_14 
ROOT
HETATM    1  O   UNL     1      34.643 -11.389 -17.394  1.00  0.00    -0.776 OA
HETATM    2  H   UNL     1      35.100 -11.016 -18.161  1.00  0.00     0.167 HD
ENDROOT
BRANCH   1   3
HETATM    3  C   UNL     1      33.358 -11.796 -17.468  1.00  0.00     0.139 C 
HETATM    4  O   UNL     1      32.559 -11.442 -16.613  1.00  0.00    -0.650 OA
BRANCH   3   5
HETATM    5  C   UNL     1      32.938 -12.683 -18.611  1.00  0.00     0.110 C 
BRANCH   5   6
HETATM    6  C   UNL     1      31.523 -13.258 -18.440  1.00  0.00     0.010 C 
BRANCH   6   7
HETATM    7  C   UNL     1      31.566 -14.780 -18.263  1.00  0.00     0.001 C 
BRANCH   7   8
HETATM    8  C   UNL     1      32.906 -15.351 -18.743  1.00  0.00     0.000 C 
BRANCH   8   9
HETATM    9  C   UNL     1      33.690 -15.969 -17.579  1.00  0.00     0.000 C 
BRANCH   9  10
HETATM   10  C   UNL     1      35.168 -16.146 -17.943  1.00  0.00     0.000 C 
BRANCH  10  11
HETATM   11  C   UNL     1      35.941 -14.834 -17.761  1.00  0.00     0.000 C 
BRANCH  11  12
HETATM   12  C   UNL     1      37.182 -15.044 -16.885  1.00  0.00     0.000 C 
BRANCH  12  13
HETATM   13  C   UNL     1      36.786 -15.334 -15.432  1.00  0.00    -0.000 C 
BRANCH  13  14
HETATM   14  C   UNL     1      37.992 -15.195 -14.496  1.00  0.00    -0.005 C 
HETATM   15  C   UNL     1      37.573 -15.330 -13.034  1.00  0.00     0.005 C 
ENDBRANCH  13  14
ENDBRANCH  12  13
ENDBRANCH  11  12
ENDBRANCH  10  11
ENDBRANCH   9  10
ENDBRANCH   8   9
ENDBRANCH   7   8
ENDBRANCH   6   7
ENDBRANCH   5   6
ENDBRANCH   3   5
ENDBRANCH   1   3
TORSDOF 11
ENDMDL
MODEL 7
REMARK VINA RESULT:      -4.8     24.717     25.611
REMARK  11 active torsions:
REMARK  status: ('A' for Active; 'I' for Inactive)
REMARK    1  A    between atoms: O_1  and  C_14 
REMARK    2  A    between atoms: C_3  and  C_4 
REMARK    3  A    between atoms: C_3  and  C_5 
REMARK    4  A    between atoms: C_4  and  C_6 
REMARK    5  A    between atoms: C_5  and  C_7 
REMARK    6  A    between atoms: C_6  and  C_8 
REMARK    7  A    between atoms: C_7  and  C_9 
REMARK    8  A    between atoms: C_8  and  C_10 
REMARK    9  A    between atoms: C_9  and  C_11 
REMARK   10  A    between atoms: C_10  and  C_12 
REMARK   11  A    between atoms: C_12  and  C_14 
ROOT
HETATM    1  O   UNL     1      38.482 -14.696  -9.474  1.00  0.00    -0.776 OA
HETATM    2  H   UNL     1      39.220 -15.225  -9.138  1.00  0.00     0.167 HD
ENDROOT
BRANCH   1   3
HETATM    3  C   UNL     1      37.348 -15.274  -9.924  1.00  0.00     0.139 C 
HETATM    4  O   UNL     1      36.313 -15.160  -9.283  1.00  0.00    -0.650 OA
BRANCH   3   5
HETATM    5  C   UNL     1      37.386 -16.052 -11.214  1.00  0.00     0.110 C 
BRANCH   5   6
HETATM    6  C   UNL     1      36.032 -16.083 -11.940  1.00  0.00     0.010 C 
BRANCH   6   7
HETATM    7  C   UNL     1      35.804 -14.790 -12.732  1.00  0.00     0.001 C 
BRANCH   7   8
HETATM    8  C   UNL     1      34.314 -14.430 -12.778  1.00  0.00     0.000 C 
BRANCH   8   9
HETATM    9  C   UNL     1      33.441 -15.690 -12.732  1.00  0.00     0.000 C 
BRANCH   9  10
HETATM   10  C   UNL     1      31.983 -15.363 -13.076  1.00  0.00     0.000 C 
BRANCH  10  11
HETATM   11  C   UNL     1      31.669 -13.888 -12.803  1.00  0.00     0.000 C 
BRANCH  11  12
HETATM   12  C   UNL     1      30.864 -13.727 -11.509  1.00  0.00     0.000 C 
BRANCH  12  13
HETATM   13  C   UNL     1      31.371 -12.533 -10.690  1.00  0.00    -0.000 C 
BRANCH  13  14
HETATM   14  C   UNL     1      31.757 -12.964  -9.271  1.00  0.00    -0.005 C 
HETATM   15  C   UNL     1      33.154 -13.578  -9.242  1.00  0.00     0.005 C 
ENDBRANCH  13  14
ENDBRANCH  12  13
ENDBRANCH  11  12
ENDBRANCH  10  11
ENDBRANCH   9  10
ENDBRANCH   8   9
ENDBRANCH   7   8
ENDBRANCH   6   7
ENDBRANCH   5   6
ENDBRANCH   3   5
ENDBRANCH   1   3
TORSDOF 11
ENDMDL
MODEL 8
REMARK VINA RESULT:      -4.8     24.036     24.931
REMARK  11 active torsions:
REMARK  status: ('A' for Active; 'I' for Inactive)
REMARK    1  A    between atoms: O_1  and  C_14 
REMARK    2  A    between atoms: C_3  and  C_4 
REMARK    3  A    between atoms: C_3  and  C_5 
REMARK    4  A    between atoms: C_4  and  C_6 
REMARK    5  A    between atoms: C_5  and  C_7 
REMARK    6  A    between atoms: C_6  and  C_8 
REMARK    7  A    between atoms: C_7  and  C_9 
REMARK    8  A    between atoms: C_8  and  C_10 
REMARK    9  A    between atoms: C_9  and  C_11 
REMARK   10  A    between atoms: C_10  and  C_12 
REMARK   11  A    between atoms: C_12  and  C_14 
ROOT
HETATM    1  O   UNL     1      36.276  -8.137 -16.874  1.00  0.00    -0.776 OA
HETATM    2  H   UNL     1      36.500  -8.381 -15.965  1.00  0.00     0.167 HD
ENDROOT
BRANCH   1   3
HETATM    3  C   UNL     1      35.262  -8.735 -17.535  1.00  0.00     0.139 C 
HETATM    4  O   UNL     1      35.224  -8.692 -18.756  1.00  0.00    -0.650 OA
BRANCH   3   5
HETATM    5  C   UNL     1      34.195  -9.447 -16.745  1.00  0.00     0.110 C 
BRANCH   5   6
HETATM    6  C   UNL     1      33.818 -10.814 -17.335  1.00  0.00     0.010 C 
BRANCH   6   7
HETATM    7  C   UNL     1      32.730 -11.494 -16.496  1.00  0.00     0.001 C 
BRANCH   7   8
HETATM    8  C   UNL     1      32.508 -12.941 -16.952  1.00  0.00     0.000 C 
BRANCH   8   9
HETATM    9  C   UNL     1      33.423 -13.905 -16.187  1.00  0.00     0.000 C 
BRANCH   9  10
HETATM   10  C   UNL     1      34.751 -14.108 -16.925  1.00  0.00     0.000 C 
BRANCH  10  11
HETATM   11  C   UNL     1      35.257 -15.547 -16.766  1.00  0.00     0.000 C 
BRANCH  11  12
HETATM   12  C   UNL     1      35.604 -16.162 -18.126  1.00  0.00     0.000 C 
BRANCH  12  13
HETATM   13  C   UNL     1      35.698 -15.081 -19.210  1.00  0.00    -0.000 C 
BRANCH  13  14
HETATM   14  C   UNL     1      36.949 -15.278 -20.074  1.00  0.00    -0.005 C 
HETATM   15  C   UNL     1      38.216 -15.252 -19.224  1.00  0.00     0.005 C 
ENDBRANCH  13  14
ENDBRANCH  12  13
ENDBRANCH  11  12
ENDBRANCH  10  11
ENDBRANCH   9  10
ENDBRANCH   8   9
ENDBRANCH   7   8
ENDBRANCH   6   7
ENDBRANCH   5   6
ENDBRANCH   3   5
ENDBRANCH   1   3
TORSDOF 11
ENDMDL
MODEL 9
REMARK VINA RESULT:      -4.7     25.550     26.213
REMARK  11 active torsions:
REMARK  status: ('A' for Active; 'I' for Inactive)
REMARK    1  A    between atoms: O_1  and  C_14 
REMARK    2  A    between atoms: C_3  and  C_4 
REMARK    3  A    between atoms: C_3  and  C_5 
REMARK    4  A    between atoms: C_4  and  C_6 
REMARK    5  A    between atoms: C_5  and  C_7 
REMARK    6  A    between atoms: C_6  and  C_8 
REMARK    7  A    between atoms: C_7  and  C_9 
REMARK    8  A    between atoms: C_8  and  C_10 
REMARK    9  A    between atoms: C_9  and  C_11 
REMARK   10  A    between atoms: C_10  and  C_12 
REMARK   11  A    between atoms: C_12  and  C_14 
ROOT
HETATM    1  O   UNL     1      36.125 -13.903 -16.868  1.00  0.00    -0.776 OA
HETATM    2  H   UNL     1      35.411 -13.879 -16.215  1.00  0.00     0.167 HD
ENDROOT
BRANCH   1   3
HETATM    3  C   UNL     1      36.795 -15.043 -17.139  1.00  0.00     0.139 C 
HETATM    4  O   UNL     1      37.035 -15.345 -18.298  1.00  0.00    -0.650 OA
BRANCH   3   5
HETATM    5  C   UNL     1      37.235 -15.920 -15.995  1.00  0.00     0.110 C 
BRANCH   5   6
HETATM    6  C   UNL     1      37.828 -15.127 -14.820  1.00  0.00     0.010 C 
BRANCH   6   7
HETATM    7  C   UNL     1      37.141 -15.503 -13.502  1.00  0.00     0.001 C 
BRANCH   7   8
HETATM    8  C   UNL     1      35.787 -14.796 -13.367  1.00  0.00     0.000 C 
BRANCH   8   9
HETATM    9  C   UNL     1      34.913 -15.478 -12.308  1.00  0.00     0.000 C 
BRANCH   9  10
HETATM   10  C   UNL     1      33.563 -15.904 -12.899  1.00  0.00     0.000 C 
BRANCH  10  11
HETATM   11  C   UNL     1      33.237 -15.102 -14.164  1.00  0.00     0.000 C 
BRANCH  11  12
HETATM   12  C   UNL     1      31.748 -14.745 -14.220  1.00  0.00     0.000 C 
BRANCH  12  13
HETATM   13  C   UNL     1      31.532 -13.390 -14.905  1.00  0.00    -0.000 C 
BRANCH  13  14
HETATM   14  C   UNL     1      32.776 -12.971 -15.698  1.00  0.00    -0.005 C 
HETATM   15  C   UNL     1      32.485 -11.760 -16.579  1.00  0.00     0.005 C 
ENDBRANCH  13  14
ENDBRANCH  12  13
ENDBRANCH  11  12
ENDBRANCH  10  11
ENDBRANCH   9  10
ENDBRANCH   8   9
ENDBRANCH   7   8
ENDBRANCH   6   7
ENDBRANCH   5   6
ENDBRANCH   3   5
ENDBRANCH   1   3
TORSDOF 11
ENDMDL
MODEL 10
REMARK VINA RESULT:      -4.7     23.632     24.625
REMARK  11 active torsions:
REMARK  status: ('A' for Active; 'I' for Inactive)
REMARK    1  A    between atoms: O_1  and  C_14 
REMARK    2  A    between atoms: C_3  and  C_4 
REMARK    3  A    between atoms: C_3  and  C_5 
REMARK    4  A    between atoms: C_4  and  C_6 
REMARK    5  A    between atoms: C_5  and  C_7 
REMARK    6  A    between atoms: C_6  and  C_8 
REMARK    7  A    between atoms: C_7  and  C_9 
REMARK    8  A    between atoms: C_8  and  C_10 
REMARK    9  A    between atoms: C_9  and  C_11 
REMARK   10  A    between atoms: C_10  and  C_12 
REMARK   11  A    between atoms: C_12  and  C_14 
ROOT
HETATM    1  O   UNL     1      36.222  -8.131 -16.829  1.00  0.00    -0.776 OA
HETATM    2  H   UNL     1      36.297  -8.197 -15.866  1.00  0.00     0.167 HD
ENDROOT
BRANCH   1   3
HETATM    3  C   UNL     1      35.302  -8.843 -17.514  1.00  0.00     0.139 C 
HETATM    4  O   UNL     1      35.340  -8.867 -18.736  1.00  0.00    -0.650 OA
BRANCH   3   5
HETATM    5  C   UNL     1      34.244  -9.597 -16.750  1.00  0.00     0.110 C 
BRANCH   5   6
HETATM    6  C   UNL     1      33.814 -10.900 -17.442  1.00  0.00     0.010 C 
BRANCH   6   7
HETATM    7  C   UNL     1      32.774 -11.649 -16.603  1.00  0.00     0.001 C 
BRANCH   7   8
HETATM    8  C   UNL     1      31.978 -12.636 -17.466  1.00  0.00     0.000 C 
BRANCH   8   9
HETATM    9  C   UNL     1      32.681 -12.887 -18.806  1.00  0.00     0.000 C 
BRANCH   9  10
HETATM   10  C   UNL     1      32.703 -14.382 -19.145  1.00  0.00     0.000 C 
BRANCH  10  11
HETATM   11  C   UNL     1      32.260 -15.227 -17.945  1.00  0.00     0.000 C 
BRANCH  11  12
HETATM   12  C   UNL     1      33.465 -15.659 -17.102  1.00  0.00     0.000 C 
BRANCH  12  13
HETATM   13  C   UNL     1      34.613 -16.147 -17.994  1.00  0.00    -0.000 C 
BRANCH  13  14
HETATM   14  C   UNL     1      35.973 -15.795 -17.380  1.00  0.00    -0.005 C 
HETATM   15  C   UNL     1      35.950 -14.406 -16.749  1.00  0.00     0.005 C 
ENDBRANCH  13  14
ENDBRANCH  12  13
ENDBRANCH  11  12
ENDBRANCH  10  11
ENDBRANCH   9  10
ENDBRANCH   8   9
ENDBRANCH   7   8
ENDBRANCH   6   7
ENDBRANCH   5   6
ENDBRANCH   3   5
ENDBRANCH   1   3
TORSDOF 11
ENDMDL
MODEL 11
REMARK VINA RESULT:      -4.7     24.441     25.143
REMARK  11 active torsions:
REMARK  status: ('A' for Active; 'I' for Inactive)
REMARK    1  A    between atoms: O_1  and  C_14 
REMARK    2  A    between atoms: C_3  and  C_4 
REMARK    3  A    between atoms: C_3  and  C_5 
REMARK    4  A    between atoms: C_4  and  C_6 
REMARK    5  A    between atoms: C_5  and  C_7 
REMARK    6  A    between atoms: C_6  and  C_8 
REMARK    7  A    between atoms: C_7  and  C_9 
REMARK    8  A    between atoms: C_8  and  C_10 
REMARK    9  A    between atoms: C_9  and  C_11 
REMARK   10  A    between atoms: C_10  and  C_12 
REMARK   11  A    between atoms: C_12  and  C_14 
ROOT
HETATM    1  O   UNL     1      37.716 -14.017 -11.604  1.00  0.00    -0.776 OA
HETATM    2  H   UNL     1      37.341 -14.048 -12.496  1.00  0.00     0.167 HD
ENDROOT
BRANCH   1   3
HETATM    3  C   UNL     1      37.524 -15.022 -10.724  1.00  0.00     0.139 C 
HETATM    4  O   UNL     1      38.173 -15.053  -9.688  1.00  0.00    -0.650 OA
BRANCH   3   5
HETATM    5  C   UNL     1      36.509 -16.089 -11.042  1.00  0.00     0.110 C 
BRANCH   5   6
HETATM    6  C   UNL     1      35.110 -15.523 -11.329  1.00  0.00     0.010 C 
BRANCH   6   7
HETATM    7  C   UNL     1      34.614 -14.666 -10.158  1.00  0.00     0.001 C 
BRANCH   7   8
HETATM    8  C   UNL     1      33.322 -15.242  -9.565  1.00  0.00     0.000 C 
BRANCH   8   9
HETATM    9  C   UNL     1      32.201 -14.196  -9.568  1.00  0.00     0.000 C 
BRANCH   9  10
HETATM   10  C   UNL     1      32.633 -12.926 -10.311  1.00  0.00     0.000 C 
BRANCH  10  11
HETATM   11  C   UNL     1      31.454 -12.303 -11.068  1.00  0.00     0.000 C 
BRANCH  11  12
HETATM   12  C   UNL     1      31.194 -13.042 -12.386  1.00  0.00     0.000 C 
BRANCH  12  13
HETATM   13  C   UNL     1      32.469 -13.115 -13.235  1.00  0.00    -0.000 C 
BRANCH  13  14
HETATM   14  C   UNL     1      32.695 -14.536 -13.765  1.00  0.00    -0.005 C 
HETATM   15  C   UNL     1      31.712 -15.521 -13.138  1.00  0.00     0.005 C 
ENDBRANCH  13  14
ENDBRANCH  12  13
ENDBRANCH  11  12
ENDBRANCH  10  11
ENDBRANCH   9  10
ENDBRANCH   8   9
ENDBRANCH   7   8
ENDBRANCH   6   7
ENDBRANCH   5   6
ENDBRANCH   3   5
ENDBRANCH   1   3
TORSDOF 11
ENDMDL
MODEL 12
REMARK VINA RESULT:      -4.7     25.974     26.619
REMARK  11 active torsions:
REMARK  status: ('A' for Active; 'I' for Inactive)
REMARK    1  A    between atoms: O_1  and  C_14 
REMARK    2  A    between atoms: C_3  and  C_4 
REMARK    3  A    between atoms: C_3  and  C_5 
REMARK    4  A    between atoms: C_4  and  C_6 
REMARK    5  A    between atoms: C_5  and  C_7 
REMARK    6  A    between atoms: C_6  and  C_8 
REMARK    7  A    between atoms: C_7  and  C_9 
REMARK    8  A    between atoms: C_8  and  C_10 
REMARK    9  A    between atoms: C_9  and  C_11 
REMARK   10  A    between atoms: C_10  and  C_12 
REMARK   11  A    between atoms: C_12  and  C_14 
ROOT
HETATM    1  O   UNL     1      35.252 -15.468 -10.610  1.00  0.00    -0.776 OA
HETATM    2  H   UNL     1      34.565 -15.921 -10.100  1.00  0.00     0.167 HD
ENDROOT
BRANCH   1   3
HETATM    3  C   UNL     1      34.967 -14.831 -11.766  1.00  0.00     0.139 C 
HETATM    4  O   UNL     1      34.837 -13.615 -11.773  1.00  0.00    -0.650 OA
BRANCH   3   5
HETATM    5  C   UNL     1      34.816 -15.641 -13.028  1.00  0.00     0.110 C 
BRANCH   5   6
HETATM    6  C   UNL     1      35.689 -15.126 -14.182  1.00  0.00     0.010 C 
BRANCH   6   7
HETATM    7  C   UNL     1      37.179 -15.262 -13.846  1.00  0.00     0.001 C 
BRANCH   7   8
HETATM    8  C   UNL     1      38.030 -15.282 -15.122  1.00  0.00     0.000 C 
BRANCH   8   9
HETATM    9  C   UNL     1      37.361 -16.122 -16.217  1.00  0.00     0.000 C 
BRANCH   9  10
HETATM   10  C   UNL     1      37.408 -15.402 -17.569  1.00  0.00     0.000 C 
BRANCH  10  11
HETATM   11  C   UNL     1      36.003 -14.983 -18.020  1.00  0.00     0.000 C 
BRANCH  11  12
HETATM   12  C   UNL     1      34.988 -16.104 -17.770  1.00  0.00     0.000 C 
BRANCH  12  13
HETATM   13  C   UNL     1      33.675 -15.543 -17.213  1.00  0.00    -0.000 C 
BRANCH  13  14
HETATM   14  C   UNL     1      33.652 -14.012 -17.297  1.00  0.00    -0.005 C 
HETATM   15  C   UNL     1      32.958 -13.404 -16.082  1.00  0.00     0.005 C 
ENDBRANCH  13  14
ENDBRANCH  12  13
ENDBRANCH  11  12
ENDBRANCH  10  11
ENDBRANCH   9  10
ENDBRANCH   8   9
ENDBRANCH   7   8
ENDBRANCH   6   7
ENDBRANCH   5   6
ENDBRANCH   3   5
ENDBRANCH   1   3
TORSDOF 11
ENDMDL
MODEL 13
REMARK VINA RESULT:      -4.7     23.964     24.980
REMARK  11 active torsions:
REMARK  status: ('A' for Active; 'I' for Inactive)
REMARK    1  A    between atoms: O_1  and  C_14 
REMARK    2  A    between atoms: C_3  and  C_4 
REMARK    3  A    between atoms: C_3  and  C_5 
REMARK    4  A    between atoms: C_4  and  C_6 
REMARK    5  A    between atoms: C_5  and  C_7 
REMARK    6  A    between atoms: C_6  and  C_8 
REMARK    7  A    between atoms: C_7  and  C_9 
REMARK    8  A    between atoms: C_8  and  C_10 
REMARK    9  A    between atoms: C_9  and  C_11 
REMARK   10  A    between atoms: C_10  and  C_12 
REMARK   11  A    between atoms: C_12  and  C_14 
ROOT
HETATM    1  O   UNL     1      36.012  -7.974 -16.576  1.00  0.00    -0.776 OA
HETATM    2  H   UNL     1      36.045  -8.057 -15.612  1.00  0.00     0.167 HD
ENDROOT
BRANCH   1   3
HETATM    3  C   UNL     1      35.233  -8.781 -17.327  1.00  0.00     0.139 C 
HETATM    4  O   UNL     1      35.444  -8.882 -18.527  1.00  0.00    -0.650 OA
BRANCH   3   5
HETATM    5  C   UNL     1      34.116  -9.543 -16.662  1.00  0.00     0.110 C 
BRANCH   5   6
HETATM    6  C   UNL     1      33.813 -10.886 -17.345  1.00  0.00     0.010 C 
BRANCH   6   7
HETATM    7  C   UNL     1      32.675 -11.621 -16.629  1.00  0.00     0.001 C 
BRANCH   7   8
HETATM    8  C   UNL     1      32.301 -12.911 -17.370  1.00  0.00     0.000 C 
BRANCH   8   9
HETATM    9  C   UNL     1      33.555 -13.687 -17.790  1.00  0.00     0.000 C 
BRANCH   9  10
HETATM   10  C   UNL     1      33.838 -14.844 -16.825  1.00  0.00     0.000 C 
BRANCH  10  11
HETATM   11  C   UNL     1      35.292 -15.317 -16.941  1.00  0.00     0.000 C 
BRANCH  11  12
HETATM   12  C   UNL     1      35.941 -15.444 -15.559  1.00  0.00     0.000 C 
BRANCH  12  13
HETATM   13  C   UNL     1      37.454 -15.661 -15.680  1.00  0.00    -0.000 C 
BRANCH  13  14
HETATM   14  C   UNL     1      38.188 -15.119 -14.448  1.00  0.00    -0.005 C 
HETATM   15  C   UNL     1      37.389 -15.375 -13.174  1.00  0.00     0.005 C 
ENDBRANCH  13  14
ENDBRANCH  12  13
ENDBRANCH  11  12
ENDBRANCH  10  11
ENDBRANCH   9  10
ENDBRANCH   8   9
ENDBRANCH   7   8
ENDBRANCH   6   7
ENDBRANCH   5   6
ENDBRANCH   3   5
ENDBRANCH   1   3
TORSDOF 11
ENDMDL
MODEL 14
REMARK VINA RESULT:      -4.7     24.661     25.528
REMARK  11 active torsions:
REMARK  status: ('A' for Active; 'I' for Inactive)
REMARK    1  A    between atoms: O_1  and  C_14 
REMARK    2  A    between atoms: C_3  and  C_4 
REMARK    3  A    between atoms: C_3  and  C_5 
REMARK    4  A    between atoms: C_4  and  C_6 
REMARK    5  A    between atoms: C_5  and  C_7 
REMARK    6  A    between atoms: C_6  and  C_8 
REMARK    7  A    between atoms: C_7  and  C_9 
REMARK    8  A    between atoms: C_8  and  C_10 
REMARK    9  A    between atoms: C_9  and  C_11 
REMARK   10  A    between atoms: C_10  and  C_12 
REMARK   11  A    between atoms: C_12  and  C_14 
ROOT
HETATM    1  O   UNL     1      38.494 -14.664 -14.581  1.00  0.00    -0.776 OA
HETATM    2  H   UNL     1      38.581 -13.777 -14.202  1.00  0.00     0.167 HD
ENDROOT
BRANCH   1   3
HETATM    3  C   UNL     1      37.292 -15.161 -14.942  1.00  0.00     0.139 C 
HETATM    4  O   UNL     1      36.532 -15.595 -14.088  1.00  0.00    -0.650 OA
BRANCH   3   5
HETATM    5  C   UNL     1      36.915 -15.171 -16.401  1.00  0.00     0.110 C 
BRANCH   5   6
HETATM    6  C   UNL     1      35.525 -14.572 -16.668  1.00  0.00     0.010 C 
BRANCH   6   7
HETATM    7  C   UNL     1      34.582 -15.621 -17.269  1.00  0.00     0.001 C 
BRANCH   7   8
HETATM    8  C   UNL     1      33.215 -15.008 -17.594  1.00  0.00     0.000 C 
BRANCH   8   9
HETATM    9  C   UNL     1      33.367 -13.733 -18.431  1.00  0.00     0.000 C 
BRANCH   9  10
HETATM   10  C   UNL     1      32.208 -12.763 -18.175  1.00  0.00     0.000 C 
BRANCH  10  11
HETATM   11  C   UNL     1      32.298 -12.156 -16.769  1.00  0.00     0.000 C 
BRANCH  11  12
HETATM   12  C   UNL     1      31.062 -12.513 -15.936  1.00  0.00     0.000 C 
BRANCH  12  13
HETATM   13  C   UNL     1      31.460 -13.246 -14.649  1.00  0.00    -0.000 C 
BRANCH  13  14
HETATM   14  C   UNL     1      32.859 -12.825 -14.187  1.00  0.00    -0.005 C 
HETATM   15  C   UNL     1      32.827 -12.275 -12.764  1.00  0.00     0.005 C 
ENDBRANCH  13  14
ENDBRANCH  12  13
ENDBRANCH  11  12
ENDBRANCH  10  11
ENDBRANCH   9  10
ENDBRANCH   8   9
ENDBRANCH   7   8
ENDBRANCH   6   7
ENDBRANCH   5   6
ENDBRANCH   3   5
ENDBRANCH   1   3
TORSDOF 11
ENDMDL
MODEL 15
REMARK VINA RESULT:      -4.7     26.113     26.991
REMARK  11 active torsions:
REMARK  status: ('A' for Active; 'I' for Inactive)
REMARK    1  A    between atoms: O_1  and  C_14 
REMARK    2  A    between atoms: C_3  and  C_4 
REMARK    3  A    between atoms: C_3  and  C_5 
REMARK    4  A    between atoms: C_4  and  C_6 
REMARK    5  A    between atoms: C_5  and  C_7 
REMARK    6  A    between atoms: C_6  and  C_8 
REMARK    7  A    between atoms: C_7  and  C_9 
REMARK    8  A    between atoms: C_8  and  C_10 
REMARK    9  A    between atoms: C_9  and  C_11 
REMARK   10  A    between atoms: C_10  and  C_12 
REMARK   11  A    between atoms: C_12  and  C_14 
ROOT
HETATM    1  O   UNL     1      35.985 -14.431 -18.123  1.00  0.00    -0.776 OA
HETATM    2  H   UNL     1      36.322 -13.630 -17.697  1.00  0.00     0.167 HD
ENDROOT
BRANCH   1   3
HETATM    3  C   UNL     1      36.059 -15.636 -17.519  1.00  0.00     0.139 C 
HETATM    4  O   UNL     1      35.192 -16.473 -17.725  1.00  0.00    -0.650 OA
BRANCH   3   5
HETATM    5  C   UNL     1      37.217 -15.922 -16.598  1.00  0.00     0.110 C 
BRANCH   5   6
HETATM    6  C   UNL     1      37.594 -14.722 -15.715  1.00  0.00     0.010 C 
BRANCH   6   7
HETATM    7  C   UNL     1      38.192 -15.188 -14.383  1.00  0.00     0.001 C 
BRANCH   7   8
HETATM    8  C   UNL     1      37.089 -15.505 -13.365  1.00  0.00     0.000 C 
BRANCH   8   9
HETATM    9  C   UNL     1      37.457 -14.977 -11.973  1.00  0.00     0.000 C 
BRANCH   9  10
HETATM   10  C   UNL     1      36.242 -14.998 -11.038  1.00  0.00     0.000 C 
BRANCH  10  11
HETATM   11  C   UNL     1      34.995 -15.517 -11.764  1.00  0.00     0.000 C 
BRANCH  11  12
HETATM   12  C   UNL     1      33.885 -14.460 -11.774  1.00  0.00     0.000 C 
BRANCH  12  13
HETATM   13  C   UNL     1      33.938 -13.619 -13.055  1.00  0.00    -0.000 C 
BRANCH  13  14
HETATM   14  C   UNL     1      33.670 -14.483 -14.292  1.00  0.00    -0.005 C 
HETATM   15  C   UNL     1      32.289 -15.130 -14.223  1.00  0.00     0.005 C 
ENDBRANCH  13  14
ENDBRANCH  12  13
ENDBRANCH  11  12
ENDBRANCH  10  11
ENDBRANCH   9  10
ENDBRANCH   8   9
ENDBRANCH   7   8
ENDBRANCH   6   7
ENDBRANCH   5   6
ENDBRANCH   3   5
ENDBRANCH   1   3
TORSDOF 11
ENDMDL
MODEL 16
REMARK VINA RESULT:      -4.6     25.755     27.362
REMARK  11 active torsions:
REMARK  status: ('A' for Active; 'I' for Inactive)
REMARK    1  A    between atoms: O_1  and  C_14 
REMARK    2  A    between atoms: C_3  and  C_4 
REMARK    3  A    between atoms: C_3  and  C_5 
REMARK    4  A    between atoms: C_4  and  C_6 
REMARK    5  A    between atoms: C_5  and  C_7 
REMARK    6  A    between atoms: C_6  and  C_8 
REMARK    7  A    between atoms: C_7  and  C_9 
REMARK    8  A    between atoms: C_8  and  C_10 
REMARK    9  A    between atoms: C_9  and  C_11 
REMARK   10  A    between atoms: C_10  and  C_12 
REMARK   11  A    between atoms: C_12  and  C_14 
ROOT
HETATM    1  O   UNL     1      36.336 -13.971 -21.648  1.00  0.00    -0.776 OA
HETATM    2  H   UNL     1      36.665 -13.095 -21.895  1.00  0.00     0.167 HD
ENDROOT
BRANCH   1   3
HETATM    3  C   UNL     1      36.365 -15.006 -22.514  1.00  0.00     0.139 C 
HETATM    4  O   UNL     1      37.431 -15.542 -22.783  1.00  0.00    -0.650 OA
BRANCH   3   5
HETATM    5  C   UNL     1      35.075 -15.478 -23.132  1.00  0.00     0.110 C 
BRANCH   5   6
HETATM    6  C   UNL     1      33.849 -15.212 -22.244  1.00  0.00     0.010 C 
BRANCH   6   7
HETATM    7  C   UNL     1      32.564 -15.698 -22.923  1.00  0.00     0.001 C 
BRANCH   7   8
HETATM    8  C   UNL     1      31.333 -14.992 -22.340  1.00  0.00     0.000 C 
BRANCH   8   9
HETATM    9  C   UNL     1      31.420 -13.475 -22.546  1.00  0.00     0.000 C 
BRANCH   9  10
HETATM   10  C   UNL     1      31.151 -12.725 -21.236  1.00  0.00     0.000 C 
BRANCH  10  11
HETATM   11  C   UNL     1      32.461 -12.257 -20.590  1.00  0.00     0.000 C 
BRANCH  11  12
HETATM   12  C   UNL     1      32.801 -13.104 -19.359  1.00  0.00     0.000 C 
BRANCH  12  13
HETATM   13  C   UNL     1      31.530 -13.663 -18.708  1.00  0.00    -0.000 C 
BRANCH  13  14
HETATM   14  C   UNL     1      31.592 -15.191 -18.605  1.00  0.00    -0.005 C 
HETATM   15  C   UNL     1      32.982 -15.660 -18.184  1.00  0.00     0.005 C 
ENDBRANCH  13  14
ENDBRANCH  12  13
ENDBRANCH  11  12
ENDBRANCH  10  11
ENDBRANCH   9  10
ENDBRANCH   8   9
ENDBRANCH   7   8
ENDBRANCH   6   7
ENDBRANCH   5   6
ENDBRANCH   3   5
ENDBRANCH   1   3
TORSDOF 11
ENDMDL
MODEL 17
REMARK VINA RESULT:      -4.6     24.495     25.426
REMARK  11 active torsions:
REMARK  status: ('A' for Active; 'I' for Inactive)
REMARK    1  A    between atoms: O_1  and  C_14 
REMARK    2  A    between atoms: C_3  and  C_4 
REMARK    3  A    between atoms: C_3  and  C_5 
REMARK    4  A    between atoms: C_4  and  C_6 
REMARK    5  A    between atoms: C_5  and  C_7 
REMARK    6  A    between atoms: C_6  and  C_8 
REMARK    7  A    between atoms: C_7  and  C_9 
REMARK    8  A    between atoms: C_8  and  C_10 
REMARK    9  A    between atoms: C_9  and  C_11 
REMARK   10  A    between atoms: C_10  and  C_12 
REMARK   11  A    between atoms: C_12  and  C_14 
ROOT
HETATM    1  O   UNL     1      36.535 -14.797 -10.043  1.00  0.00    -0.776 OA
HETATM    2  H   UNL     1      37.483 -14.771  -9.849  1.00  0.00     0.167 HD
ENDROOT
BRANCH   1   3
HETATM    3  C   UNL     1      36.047 -15.509 -11.080  1.00  0.00     0.139 C 
HETATM    4  O   UNL     1      36.432 -16.655 -11.265  1.00  0.00    -0.650 OA
BRANCH   3   5
HETATM    5  C   UNL     1      35.033 -14.869 -11.992  1.00  0.00     0.110 C 
BRANCH   5   6
HETATM    6  C   UNL     1      34.337 -15.876 -12.921  1.00  0.00     0.010 C 
BRANCH   6   7
HETATM    7  C   UNL     1      32.813 -15.781 -12.791  1.00  0.00     0.001 C 
BRANCH   7   8
HETATM    8  C   UNL     1      32.192 -15.156 -14.046  1.00  0.00     0.000 C 
BRANCH   8   9
HETATM    9  C   UNL     1      32.069 -13.635 -13.901  1.00  0.00     0.000 C 
BRANCH   9  10
HETATM   10  C   UNL     1      31.286 -13.263 -12.636  1.00  0.00     0.000 C 
BRANCH  10  11
HETATM   11  C   UNL     1      32.046 -12.224 -11.803  1.00  0.00     0.000 C 
BRANCH  11  12
HETATM   12  C   UNL     1      32.361 -12.766 -10.404  1.00  0.00     0.000 C 
BRANCH  12  13
HETATM   13  C   UNL     1      31.450 -13.948 -10.054  1.00  0.00    -0.000 C 
BRANCH  13  14
HETATM   14  C   UNL     1      31.695 -14.424  -8.618  1.00  0.00    -0.005 C 
HETATM   15  C   UNL     1      32.740 -15.535  -8.576  1.00  0.00     0.005 C 
ENDBRANCH  13  14
ENDBRANCH  12  13
ENDBRANCH  11  12
ENDBRANCH  10  11
ENDBRANCH   9  10
ENDBRANCH   8   9
ENDBRANCH   7   8
ENDBRANCH   6   7
ENDBRANCH   5   6
ENDBRANCH   3   5
ENDBRANCH   1   3
TORSDOF 11
ENDMDL
MODEL 18
REMARK VINA RESULT:      -4.6     25.426     26.108
REMARK  11 active torsions:
REMARK  status: ('A' for Active; 'I' for Inactive)
REMARK    1  A    between atoms: O_1  and  C_14 
REMARK    2  A    between atoms: C_3  and  C_4 
REMARK    3  A    between atoms: C_3  and  C_5 
REMARK    4  A    between atoms: C_4  and  C_6 
REMARK    5  A    between atoms: C_5  and  C_7 
REMARK    6  A    between atoms: C_6  and  C_8 
REMARK    7  A    between atoms: C_7  and  C_9 
REMARK    8  A    between atoms: C_8  and  C_10 
REMARK    9  A    between atoms: C_9  and  C_11 
REMARK   10  A    between atoms: C_10  and  C_12 
REMARK   11  A    between atoms: C_12  and  C_14 
ROOT
HETATM    1  O   UNL     1      34.644 -12.431 -12.546  1.00  0.00    -0.776 OA
HETATM    2  H   UNL     1      35.233 -11.737 -12.219  1.00  0.00     0.167 HD
ENDROOT
BRANCH   1   3
HETATM    3  C   UNL     1      34.776 -13.714 -12.148  1.00  0.00     0.139 C 
HETATM    4  O   UNL     1      35.876 -14.139 -11.824  1.00  0.00    -0.650 OA
BRANCH   3   5
HETATM    5  C   UNL     1      33.556 -14.598 -12.115  1.00  0.00     0.110 C 
BRANCH   5   6
HETATM    6  C   UNL     1      32.624 -14.384 -13.317  1.00  0.00     0.010 C 
BRANCH   6   7
HETATM    7  C   UNL     1      33.175 -15.076 -14.569  1.00  0.00     0.001 C 
BRANCH   7   8
HETATM    8  C   UNL     1      33.252 -14.099 -15.748  1.00  0.00     0.000 C 
BRANCH   8   9
HETATM    9  C   UNL     1      33.573 -14.836 -17.054  1.00  0.00     0.000 C 
BRANCH   9  10
HETATM   10  C   UNL     1      34.610 -14.067 -17.881  1.00  0.00     0.000 C 
BRANCH  10  11
HETATM   11  C   UNL     1      35.812 -14.957 -18.221  1.00  0.00     0.000 C 
BRANCH  11  12
HETATM   12  C   UNL     1      35.921 -16.132 -17.244  1.00  0.00     0.000 C 
BRANCH  12  13
HETATM   13  C   UNL     1      37.202 -16.034 -16.406  1.00  0.00    -0.000 C 
BRANCH  13  14
HETATM   14  C   UNL     1      36.916 -15.409 -15.036  1.00  0.00    -0.005 C 
HETATM   15  C   UNL     1      38.209 -15.155 -14.266  1.00  0.00     0.005 C 
ENDBRANCH  13  14
ENDBRANCH  12  13
ENDBRANCH  11  12
ENDBRANCH  10  11
ENDBRANCH   9  10
ENDBRANCH   8   9
ENDBRANCH   7   8
ENDBRANCH   6   7
ENDBRANCH   5   6
ENDBRANCH   3   5
ENDBRANCH   1   3
TORSDOF 11
ENDMDL
MODEL 19
REMARK VINA RESULT:      -4.6     25.085     26.265
REMARK  11 active torsions:
REMARK  status: ('A' for Active; 'I' for Inactive)
REMARK    1  A    between atoms: O_1  and  C_14 
REMARK    2  A    between atoms: C_3  and  C_4 
REMARK    3  A    between atoms: C_3  and  C_5 
REMARK    4  A    between atoms: C_4  and  C_6 
REMARK    5  A    between atoms: C_5  and  C_7 
REMARK    6  A    between atoms: C_6  and  C_8 
REMARK    7  A    between atoms: C_7  and  C_9 
REMARK    8  A    between atoms: C_8  and  C_10 
REMARK    9  A    between atoms: C_9  and  C_11 
REMARK   10  A    between atoms: C_10  and  C_12 
REMARK   11  A    between atoms: C_12  and  C_14 
ROOT
HETATM    1  O   UNL     1      35.614 -13.987 -17.947  1.00  0.00    -0.776 OA
HETATM    2  H   UNL     1      36.543 -14.031 -17.678  1.00  0.00     0.167 HD
ENDROOT
BRANCH   1   3
HETATM    3  C   UNL     1      34.623 -14.408 -17.132  1.00  0.00     0.139 C 
HETATM    4  O   UNL     1      34.506 -13.922 -16.017  1.00  0.00    -0.650 OA
BRANCH   3   5
HETATM    5  C   UNL     1      33.679 -15.476 -17.623  1.00  0.00     0.110 C 
BRANCH   5   6
HETATM    6  C   UNL     1      33.098 -15.174 -19.012  1.00  0.00     0.010 C 
BRANCH   6   7
HETATM    7  C   UNL     1      31.689 -14.580 -18.901  1.00  0.00     0.001 C 
BRANCH   7   8
HETATM    8  C   UNL     1      31.729 -13.050 -19.003  1.00  0.00     0.000 C 
BRANCH   8   9
HETATM    9  C   UNL     1      31.959 -12.600 -20.450  1.00  0.00     0.000 C 
BRANCH   9  10
HETATM   10  C   UNL     1      30.896 -13.187 -21.386  1.00  0.00     0.000 C 
BRANCH  10  11
HETATM   11  C   UNL     1      31.456 -13.390 -22.799  1.00  0.00     0.000 C 
BRANCH  11  12
HETATM   12  C   UNL     1      31.554 -14.880 -23.144  1.00  0.00     0.000 C 
BRANCH  12  13
HETATM   13  C   UNL     1      32.862 -15.482 -22.617  1.00  0.00    -0.000 C 
BRANCH  13  14
HETATM   14  C   UNL     1      34.076 -14.727 -23.171  1.00  0.00    -0.005 C 
HETATM   15  C   UNL     1      34.963 -14.206 -22.043  1.00  0.00     0.005 C 
ENDBRANCH  13  14
ENDBRANCH  12  13
ENDBRANCH  11  12
ENDBRANCH  10  11
ENDBRANCH   9  10
ENDBRANCH   8   9
ENDBRANCH   7   8
ENDBRANCH   6   7
ENDBRANCH   5   6
ENDBRANCH   3   5
ENDBRANCH   1   3
TORSDOF 11
ENDMDL
MODEL 20
REMARK VINA RESULT:      -4.5     25.123     25.933
REMARK  11 active torsions:
REMARK  status: ('A' for Active; 'I' for Inactive)
REMARK    1  A    between atoms: O_1  and  C_14 
REMARK    2  A    between atoms: C_3  and  C_4 
REMARK    3  A    between atoms: C_3  and  C_5 
REMARK    4  A    between atoms: C_4  and  C_6 
REMARK    5  A    between atoms: C_5  and  C_7 
REMARK    6  A    between atoms: C_6  and  C_8 
REMARK    7  A    between atoms: C_7  and  C_9 
REMARK    8  A    between atoms: C_8  and  C_10 
REMARK    9  A    between atoms: C_9  and  C_11 
REMARK   10  A    between atoms: C_10  and  C_12 
REMARK   11  A    between atoms: C_12  and  C_14 
ROOT
HETATM    1  O   UNL     1      37.162 -14.514  -7.468  1.00  0.00    -0.776 OA
HETATM    2  H   UNL     1      37.141 -13.569  -7.678  1.00  0.00     0.167 HD
ENDROOT
BRANCH   1   3
HETATM    3  C   UNL     1      36.315 -15.386  -8.055  1.00  0.00     0.139 C 
HETATM    4  O   UNL     1      35.724 -16.210  -7.372  1.00  0.00    -0.650 OA
BRANCH   3   5
HETATM    5  C   UNL     1      36.119 -15.322  -9.547  1.00  0.00     0.110 C 
BRANCH   5   6
HETATM    6  C   UNL     1      37.442 -15.242 -10.326  1.00  0.00     0.010 C 
BRANCH   6   7
HETATM    7  C   UNL     1      37.297 -15.864 -11.719  1.00  0.00     0.001 C 
BRANCH   7   8
HETATM    8  C   UNL     1      35.821 -15.983 -12.118  1.00  0.00     0.000 C 
BRANCH   8   9
HETATM    9  C   UNL     1      35.526 -15.173 -13.386  1.00  0.00     0.000 C 
BRANCH   9  10
HETATM   10  C   UNL     1      34.085 -14.649 -13.383  1.00  0.00     0.000 C 
BRANCH  10  11
HETATM   11  C   UNL     1      33.100 -15.747 -12.966  1.00  0.00     0.000 C 
BRANCH  11  12
HETATM   12  C   UNL     1      31.660 -15.222 -12.965  1.00  0.00     0.000 C 
BRANCH  12  13
HETATM   13  C   UNL     1      31.634 -13.689 -12.960  1.00  0.00    -0.000 C 
BRANCH  13  14
HETATM   14  C   UNL     1      30.979 -13.154 -11.681  1.00  0.00    -0.005 C 
HETATM   15  C   UNL     1      31.982 -13.097 -10.532  1.00  0.00     0.005 C 
ENDBRANCH  13  14
ENDBRANCH  12  13
ENDBRANCH  11  12
ENDBRANCH  10  11
ENDBRANCH   9  10
ENDBRANCH   8   9
ENDBRANCH   7   8
ENDBRANCH   6   7
ENDBRANCH   5   6
ENDBRANCH   3   5
ENDBRANCH   1   3
TORSDOF 11
ENDMDL
