MODEL 1
REMARK VINA RESULT:      -6.0      0.000      0.000
REMARK  15 active torsions:
REMARK  status: ('A' for Active; 'I' for Inactive)
REMARK    1  A    between atoms: O_1  and  C_22 
REMARK    2  A    between atoms: C_3  and  C_4 
REMARK    3  A    between atoms: C_3  and  C_5 
REMARK    4  A    between atoms: C_4  and  C_6 
REMARK    5  A    between atoms: C_5  and  C_7 
REMARK    6  A    between atoms: C_9  and  C_10 
REMARK    7  A    between atoms: C_9  and  C_13 
REMARK    8  A    between atoms: C_10  and  C_14 
REMARK    9  A    between atoms: C_11  and  C_12 
REMARK   10  A    between atoms: C_12  and  C_16 
REMARK   11  A    between atoms: C_13  and  C_22 
REMARK   12  A    between atoms: C_15  and  C_17 
REMARK   13  A    between atoms: C_15  and  C_20 
REMARK   14  A    between atoms: C_18  and  C_19 
REMARK   15  A    between atoms: C_18  and  C_21 
ROOT
HETATM    1  O   UNL     1      35.339 -13.383 -22.218  1.00  0.00    -0.776 OA
HETATM    2  H   UNL     1      35.383 -12.951 -23.083  1.00  0.00     0.167 HD
ENDROOT
BRANCH   1   3
HETATM    3  C   UNL     1      35.350 -14.728 -22.103  1.00  0.00     0.139 C 
HETATM    4  O   UNL     1      34.418 -15.388 -22.539  1.00  0.00    -0.650 OA
BRANCH   3   5
HETATM    5  C   UNL     1      36.506 -15.411 -21.427  1.00  0.00     0.110 C 
BRANCH   5   6
HETATM    6  C   UNL     1      36.642 -15.007 -19.952  1.00  0.00     0.014 C 
BRANCH   6   7
HETATM    7  C   UNL     1      35.516 -15.574 -19.077  1.00  0.00     0.027 C 
BRANCH   7   8
HETATM    8  C   UNL     1      35.275 -14.660 -17.903  1.00  0.00    -0.030 C 
HETATM    9  C   UNL     1      35.876 -14.763 -16.702  1.00  0.00    -0.027 C 
BRANCH   9  10
HETATM   10  C   UNL     1      36.912 -15.793 -16.328  1.00  0.00     0.053 C 
BRANCH  10  11
HETATM   11  C   UNL     1      37.887 -15.245 -15.310  1.00  0.00    -0.027 C 
HETATM   12  C   UNL     1      37.734 -15.198 -13.970  1.00  0.00    -0.027 C 
BRANCH  12  13
HETATM   13  C   UNL     1      36.557 -15.700 -13.173  1.00  0.00     0.053 C 
BRANCH  13  14
HETATM   14  C   UNL     1      36.024 -14.598 -12.289  1.00  0.00    -0.027 C 
HETATM   15  C   UNL     1      34.883 -13.914 -12.509  1.00  0.00    -0.027 C 
BRANCH  15  16
HETATM   16  C   UNL     1      33.969 -14.133 -13.687  1.00  0.00     0.053 C 
BRANCH  16  17
HETATM   17  C   UNL     1      32.816 -13.161 -13.681  1.00  0.00    -0.027 C 
HETATM   18  C   UNL     1      31.609 -13.427 -14.210  1.00  0.00    -0.030 C 
BRANCH  18  19
HETATM   19  C   UNL     1      31.234 -14.718 -14.892  1.00  0.00     0.027 C 
BRANCH  19  20
HETATM   20  C   UNL     1      31.253 -14.521 -16.411  1.00  0.00     0.004 C 
BRANCH  20  21
HETATM   21  C   UNL     1      31.085 -13.044 -16.782  1.00  0.00    -0.000 C 
BRANCH  21  22
HETATM   22  C   UNL     1      32.171 -12.602 -17.770  1.00  0.00    -0.005 C 
HETATM   23  C   UNL     1      33.084 -11.549 -17.151  1.00  0.00     0.005 C 
ENDBRANCH  21  22
ENDBRANCH  20  21
ENDBRANCH  19  20
ENDBRANCH  18  19
ENDBRANCH  16  17
ENDBRANCH  15  16
ENDBRANCH  13  14
ENDBRANCH  12  13
ENDBRANCH  10  11
ENDBRANCH   9  10
ENDBRANCH   7   8
ENDBRANCH   6   7
ENDBRANCH   5   6
ENDBRANCH   3   5
ENDBRANCH   1   3
TORSDOF 15
ENDMDL
MODEL 2
REMARK VINA RESULT:      -6.0      2.704      5.889
REMARK  15 active torsions:
REMARK  status: ('A' for Active; 'I' for Inactive)
REMARK    1  A    between atoms: O_1  and  C_22 
REMARK    2  A    between atoms: C_3  and  C_4 
REMARK    3  A    between atoms: C_3  and  C_5 
REMARK    4  A    between atoms: C_4  and  C_6 
REMARK    5  A    between atoms: C_5  and  C_7 
REMARK    6  A    between atoms: C_9  and  C_10 
REMARK    7  A    between atoms: C_9  and  C_13 
REMARK    8  A    between atoms: C_10  and  C_14 
REMARK    9  A    between atoms: C_11  and  C_12 
REMARK   10  A    between atoms: C_12  and  C_16 
REMARK   11  A    between atoms: C_13  and  C_22 
REMARK   12  A    between atoms: C_15  and  C_17 
REMARK   13  A    between atoms: C_15  and  C_20 
REMARK   14  A    between atoms: C_18  and  C_19 
REMARK   15  A    between atoms: C_18  and  C_21 
ROOT
HETATM    1  O   UNL     1      36.015  -9.523 -17.447  1.00  0.00    -0.776 OA
HETATM    2  H   UNL     1      36.344  -9.955 -18.248  1.00  0.00     0.167 HD
ENDROOT
BRANCH   1   3
HETATM    3  C   UNL     1      34.758  -9.035 -17.377  1.00  0.00     0.139 C 
HETATM    4  O   UNL     1      34.457  -8.025 -17.997  1.00  0.00    -0.650 OA
BRANCH   3   5
HETATM    5  C   UNL     1      33.733  -9.731 -16.525  1.00  0.00     0.110 C 
BRANCH   5   6
HETATM    6  C   UNL     1      33.371 -11.122 -17.065  1.00  0.00     0.014 C 
BRANCH   6   7
HETATM    7  C   UNL     1      32.910 -12.083 -15.962  1.00  0.00     0.027 C 
BRANCH   7   8
HETATM    8  C   UNL     1      31.445 -12.396 -16.141  1.00  0.00    -0.030 C 
HETATM    9  C   UNL     1      30.945 -13.596 -16.491  1.00  0.00    -0.027 C 
BRANCH   9  10
HETATM   10  C   UNL     1      31.755 -14.842 -16.743  1.00  0.00     0.053 C 
BRANCH  10  11
HETATM   11  C   UNL     1      31.619 -15.305 -18.176  1.00  0.00    -0.027 C 
HETATM   12  C   UNL     1      32.434 -15.020 -19.212  1.00  0.00    -0.027 C 
BRANCH  12  13
HETATM   13  C   UNL     1      33.689 -14.184 -19.175  1.00  0.00     0.053 C 
BRANCH  13  14
HETATM   14  C   UNL     1      34.902 -15.078 -19.073  1.00  0.00    -0.027 C 
HETATM   15  C   UNL     1      35.628 -15.272 -17.953  1.00  0.00    -0.027 C 
BRANCH  15  16
HETATM   16  C   UNL     1      35.348 -14.610 -16.629  1.00  0.00     0.053 C 
BRANCH  16  17
HETATM   17  C   UNL     1      35.936 -15.394 -15.483  1.00  0.00    -0.027 C 
HETATM   18  C   UNL     1      35.429 -15.397 -14.238  1.00  0.00    -0.030 C 
BRANCH  18  19
HETATM   19  C   UNL     1      34.217 -14.614 -13.801  1.00  0.00     0.027 C 
BRANCH  19  20
HETATM   20  C   UNL     1      33.079 -15.579 -13.453  1.00  0.00     0.004 C 
BRANCH  20  21
HETATM   21  C   UNL     1      31.820 -14.820 -13.020  1.00  0.00    -0.000 C 
BRANCH  21  22
HETATM   22  C   UNL     1      32.127 -13.872 -11.855  1.00  0.00    -0.005 C 
HETATM   23  C   UNL     1      30.948 -12.945 -11.574  1.00  0.00     0.005 C 
ENDBRANCH  21  22
ENDBRANCH  20  21
ENDBRANCH  19  20
ENDBRANCH  18  19
ENDBRANCH  16  17
ENDBRANCH  15  16
ENDBRANCH  13  14
ENDBRANCH  12  13
ENDBRANCH  10  11
ENDBRANCH   9  10
ENDBRANCH   7   8
ENDBRANCH   6   7
ENDBRANCH   5   6
ENDBRANCH   3   5
ENDBRANCH   1   3
TORSDOF 15
ENDMDL
MODEL 3
REMARK VINA RESULT:      -5.8      1.934      4.769
REMARK  15 active torsions:
REMARK  status: ('A' for Active; 'I' for Inactive)
REMARK    1  A    between atoms: O_1  and  C_22 
REMARK    2  A    between atoms: C_3  and  C_4 
REMARK    3  A    between atoms: C_3  and  C_5 
REMARK    4  A    between atoms: C_4  and  C_6 
REMARK    5  A    between atoms: C_5  and  C_7 
REMARK    6  A    between atoms: C_9  and  C_10 
REMARK    7  A    between atoms: C_9  and  C_13 
REMARK    8  A    between atoms: C_10  and  C_14 
REMARK    9  A    between atoms: C_11  and  C_12 
REMARK   10  A    between atoms: C_12  and  C_16 
REMARK   11  A    between atoms: C_13  and  C_22 
REMARK   12  A    between atoms: C_15  and  C_17 
REMARK   13  A    between atoms: C_15  and  C_20 
REMARK   14  A    between atoms: C_18  and  C_19 
REMARK   15  A    between atoms: C_18  and  C_21 
ROOT
HETATM    1  O   UNL     1      34.528 -11.222 -22.244  1.00  0.00    -0.776 OA
HETATM    2  H   UNL     1      34.409 -10.299 -22.510  1.00  0.00     0.167 HD
ENDROOT
BRANCH   1   3
HETATM    3  C   UNL     1      33.573 -12.149 -22.470  1.00  0.00     0.139 C 
HETATM    4  O   UNL     1      33.771 -13.047 -23.276  1.00  0.00    -0.650 OA
BRANCH   3   5
HETATM    5  C   UNL     1      32.262 -12.066 -21.738  1.00  0.00     0.110 C 
BRANCH   5   6
HETATM    6  C   UNL     1      32.373 -12.550 -20.286  1.00  0.00     0.014 C 
BRANCH   6   7
HETATM    7  C   UNL     1      31.708 -13.915 -20.064  1.00  0.00     0.027 C 
BRANCH   7   8
HETATM    8  C   UNL     1      32.616 -14.794 -19.242  1.00  0.00    -0.030 C 
HETATM    9  C   UNL     1      32.404 -15.146 -17.960  1.00  0.00    -0.027 C 
BRANCH   9  10
HETATM   10  C   UNL     1      31.212 -14.743 -17.129  1.00  0.00     0.053 C 
BRANCH  10  11
HETATM   11  C   UNL     1      31.064 -13.238 -17.076  1.00  0.00    -0.027 C 
HETATM   12  C   UNL     1      31.629 -12.389 -16.193  1.00  0.00    -0.027 C 
BRANCH  12  13
HETATM   13  C   UNL     1      32.560 -12.743 -15.062  1.00  0.00     0.053 C 
BRANCH  13  14
HETATM   14  C   UNL     1      31.766 -13.018 -13.806  1.00  0.00    -0.027 C 
HETATM   15  C   UNL     1      31.674 -14.218 -13.197  1.00  0.00    -0.027 C 
BRANCH  15  16
HETATM   16  C   UNL     1      32.339 -15.478 -13.688  1.00  0.00     0.053 C 
BRANCH  16  17
HETATM   17  C   UNL     1      33.406 -15.948 -12.730  1.00  0.00    -0.027 C 
HETATM   18  C   UNL     1      34.723 -15.758 -12.922  1.00  0.00    -0.030 C 
BRANCH  18  19
HETATM   19  C   UNL     1      35.326 -15.063 -14.117  1.00  0.00     0.027 C 
BRANCH  19  20
HETATM   20  C   UNL     1      36.841 -15.290 -14.133  1.00  0.00     0.004 C 
BRANCH  20  21
HETATM   21  C   UNL     1      37.381 -15.324 -15.567  1.00  0.00    -0.000 C 
BRANCH  21  22
HETATM   22  C   UNL     1      36.364 -15.962 -16.520  1.00  0.00    -0.005 C 
HETATM   23  C   UNL     1      36.162 -15.105 -17.766  1.00  0.00     0.005 C 
ENDBRANCH  21  22
ENDBRANCH  20  21
ENDBRANCH  19  20
ENDBRANCH  18  19
ENDBRANCH  16  17
ENDBRANCH  15  16
ENDBRANCH  13  14
ENDBRANCH  12  13
ENDBRANCH  10  11
ENDBRANCH   9  10
ENDBRANCH   7   8
ENDBRANCH   6   7
ENDBRANCH   5   6
ENDBRANCH   3   5
ENDBRANCH   1   3
TORSDOF 15
ENDMDL
MODEL 4
REMARK VINA RESULT:      -5.7      2.745      5.117
REMARK  15 active torsions:
REMARK  status: ('A' for Active; 'I' for Inactive)
REMARK    1  A    between atoms: O_1  and  C_22 
REMARK    2  A    between atoms: C_3  and  C_4 
REMARK    3  A    between atoms: C_3  and  C_5 
REMARK    4  A    between atoms: C_4  and  C_6 
REMARK    5  A    between atoms: C_5  and  C_7 
REMARK    6  A    between atoms: C_9  and  C_10 
REMARK    7  A    between atoms: C_9  and  C_13 
REMARK    8  A    between atoms: C_10  and  C_14 
REMARK    9  A    between atoms: C_11  and  C_12 
REMARK   10  A    between atoms: C_12  and  C_16 
REMARK   11  A    between atoms: C_13  and  C_22 
REMARK   12  A    between atoms: C_15  and  C_17 
REMARK   13  A    between atoms: C_15  and  C_20 
REMARK   14  A    between atoms: C_18  and  C_19 
REMARK   15  A    between atoms: C_18  and  C_21 
ROOT
HETATM    1  O   UNL     1      33.463 -10.594 -21.476  1.00  0.00    -0.776 OA
HETATM    2  H   UNL     1      34.128 -10.344 -20.820  1.00  0.00     0.167 HD
ENDROOT
BRANCH   1   3
HETATM    3  C   UNL     1      33.602 -11.704 -22.231  1.00  0.00     0.139 C 
HETATM    4  O   UNL     1      34.660 -12.318 -22.229  1.00  0.00    -0.650 OA
BRANCH   3   5
HETATM    5  C   UNL     1      32.457 -12.177 -23.084  1.00  0.00     0.110 C 
BRANCH   5   6
HETATM    6  C   UNL     1      31.989 -13.589 -22.703  1.00  0.00     0.014 C 
BRANCH   6   7
HETATM    7  C   UNL     1      32.504 -14.664 -23.669  1.00  0.00     0.027 C 
BRANCH   7   8
HETATM    8  C   UNL     1      32.942 -15.878 -22.890  1.00  0.00    -0.030 C 
HETATM    9  C   UNL     1      34.217 -16.187 -22.587  1.00  0.00    -0.027 C 
BRANCH   9  10
HETATM   10  C   UNL     1      35.427 -15.364 -22.950  1.00  0.00     0.053 C 
BRANCH  10  11
HETATM   11  C   UNL     1      36.702 -16.026 -22.478  1.00  0.00    -0.027 C 
HETATM   12  C   UNL     1      37.330 -15.849 -21.297  1.00  0.00    -0.027 C 
BRANCH  12  13
HETATM   13  C   UNL     1      36.892 -14.962 -20.160  1.00  0.00     0.053 C 
BRANCH  13  14
HETATM   14  C   UNL     1      37.581 -15.381 -18.883  1.00  0.00    -0.027 C 
HETATM   15  C   UNL     1      37.080 -15.211 -17.642  1.00  0.00    -0.027 C 
BRANCH  15  16
HETATM   16  C   UNL     1      35.757 -14.559 -17.338  1.00  0.00     0.053 C 
BRANCH  16  17
HETATM   17  C   UNL     1      34.697 -15.583 -17.018  1.00  0.00    -0.027 C 
HETATM   18  C   UNL     1      33.670 -15.880 -17.835  1.00  0.00    -0.030 C 
BRANCH  18  19
HETATM   19  C   UNL     1      33.421 -15.231 -19.173  1.00  0.00     0.027 C 
BRANCH  19  20
HETATM   20  C   UNL     1      31.944 -14.840 -19.288  1.00  0.00     0.004 C 
BRANCH  20  21
HETATM   21  C   UNL     1      31.568 -13.780 -18.247  1.00  0.00    -0.000 C 
BRANCH  21  22
HETATM   22  C   UNL     1      32.379 -12.496 -18.458  1.00  0.00    -0.005 C 
HETATM   23  C   UNL     1      32.866 -11.927 -17.128  1.00  0.00     0.005 C 
ENDBRANCH  21  22
ENDBRANCH  20  21
ENDBRANCH  19  20
ENDBRANCH  18  19
ENDBRANCH  16  17
ENDBRANCH  15  16
ENDBRANCH  13  14
ENDBRANCH  12  13
ENDBRANCH  10  11
ENDBRANCH   9  10
ENDBRANCH   7   8
ENDBRANCH   6   7
ENDBRANCH   5   6
ENDBRANCH   3   5
ENDBRANCH   1   3
TORSDOF 15
ENDMDL
MODEL 5
REMARK VINA RESULT:      -5.7      2.582      7.560
REMARK  15 active torsions:
REMARK  status: ('A' for Active; 'I' for Inactive)
REMARK    1  A    between atoms: O_1  and  C_22 
REMARK    2  A    between atoms: C_3  and  C_4 
REMARK    3  A    between atoms: C_3  and  C_5 
REMARK    4  A    between atoms: C_4  and  C_6 
REMARK    5  A    between atoms: C_5  and  C_7 
REMARK    6  A    between atoms: C_9  and  C_10 
REMARK    7  A    between atoms: C_9  and  C_13 
REMARK    8  A    between atoms: C_10  and  C_14 
REMARK    9  A    between atoms: C_11  and  C_12 
REMARK   10  A    between atoms: C_12  and  C_16 
REMARK   11  A    between atoms: C_13  and  C_22 
REMARK   12  A    between atoms: C_15  and  C_17 
REMARK   13  A    between atoms: C_15  and  C_20 
REMARK   14  A    between atoms: C_18  and  C_19 
REMARK   15  A    between atoms: C_18  and  C_21 
ROOT
HETATM    1  O   UNL     1      33.787 -11.468 -18.100  1.00  0.00    -0.776 OA
HETATM    2  H   UNL     1      34.355 -11.762 -18.826  1.00  0.00     0.167 HD
ENDROOT
BRANCH   1   3
HETATM    3  C   UNL     1      33.065 -12.346 -17.372  1.00  0.00     0.139 C 
HETATM    4  O   UNL     1      33.434 -12.661 -16.250  1.00  0.00    -0.650 OA
BRANCH   3   5
HETATM    5  C   UNL     1      31.813 -12.946 -17.950  1.00  0.00     0.110 C 
BRANCH   5   6
HETATM    6  C   UNL     1      32.102 -14.184 -18.812  1.00  0.00     0.014 C 
BRANCH   6   7
HETATM    7  C   UNL     1      31.403 -14.131 -20.176  1.00  0.00     0.027 C 
BRANCH   7   8
HETATM    8  C   UNL     1      31.309 -12.700 -20.644  1.00  0.00    -0.030 C 
HETATM    9  C   UNL     1      32.215 -12.076 -21.419  1.00  0.00    -0.027 C 
BRANCH   9  10
HETATM   10  C   UNL     1      33.469 -12.701 -21.977  1.00  0.00     0.053 C 
BRANCH  10  11
HETATM   11  C   UNL     1      33.246 -13.219 -23.380  1.00  0.00    -0.027 C 
HETATM   12  C   UNL     1      33.599 -14.423 -23.876  1.00  0.00    -0.027 C 
BRANCH  12  13
HETATM   13  C   UNL     1      34.282 -15.544 -23.136  1.00  0.00     0.053 C 
BRANCH  13  14
HETATM   14  C   UNL     1      35.770 -15.501 -23.392  1.00  0.00    -0.027 C 
HETATM   15  C   UNL     1      36.720 -15.487 -22.434  1.00  0.00    -0.027 C 
BRANCH  15  16
HETATM   16  C   UNL     1      36.439 -15.497 -20.954  1.00  0.00     0.053 C 
BRANCH  16  17
HETATM   17  C   UNL     1      37.672 -15.151 -20.156  1.00  0.00    -0.027 C 
HETATM   18  C   UNL     1      37.720 -15.153 -18.812  1.00  0.00    -0.030 C 
BRANCH  18  19
HETATM   19  C   UNL     1      36.558 -15.486 -17.910  1.00  0.00     0.027 C 
BRANCH  19  20
HETATM   20  C   UNL     1      36.736 -14.784 -16.560  1.00  0.00     0.004 C 
BRANCH  20  21
HETATM   21  C   UNL     1      36.960 -15.798 -15.433  1.00  0.00    -0.000 C 
BRANCH  21  22
HETATM   22  C   UNL     1      38.083 -15.335 -14.497  1.00  0.00    -0.005 C 
HETATM   23  C   UNL     1      37.580 -15.188 -13.064  1.00  0.00     0.005 C 
ENDBRANCH  21  22
ENDBRANCH  20  21
ENDBRANCH  19  20
ENDBRANCH  18  19
ENDBRANCH  16  17
ENDBRANCH  15  16
ENDBRANCH  13  14
ENDBRANCH  12  13
ENDBRANCH  10  11
ENDBRANCH   9  10
ENDBRANCH   7   8
ENDBRANCH   6   7
ENDBRANCH   5   6
ENDBRANCH   3   5
ENDBRANCH   1   3
TORSDOF 15
ENDMDL
MODEL 6
REMARK VINA RESULT:      -5.6      2.568      5.337
REMARK  15 active torsions:
REMARK  status: ('A' for Active; 'I' for Inactive)
REMARK    1  A    between atoms: O_1  and  C_22 
REMARK    2  A    between atoms: C_3  and  C_4 
REMARK    3  A    between atoms: C_3  and  C_5 
REMARK    4  A    between atoms: C_4  and  C_6 
REMARK    5  A    between atoms: C_5  and  C_7 
REMARK    6  A    between atoms: C_9  and  C_10 
REMARK    7  A    between atoms: C_9  and  C_13 
REMARK    8  A    between atoms: C_10  and  C_14 
REMARK    9  A    between atoms: C_11  and  C_12 
REMARK   10  A    between atoms: C_12  and  C_16 
REMARK   11  A    between atoms: C_13  and  C_22 
REMARK   12  A    between atoms: C_15  and  C_17 
REMARK   13  A    between atoms: C_15  and  C_20 
REMARK   14  A    between atoms: C_18  and  C_19 
REMARK   15  A    between atoms: C_18  and  C_21 
ROOT
HETATM    1  O   UNL     1      35.760 -14.145 -18.357  1.00  0.00    -0.776 OA
HETATM    2  H   UNL     1      36.272 -13.332 -18.246  1.00  0.00     0.167 HD
ENDROOT
BRANCH   1   3
HETATM    3  C   UNL     1      35.920 -15.196 -17.525  1.00  0.00     0.139 C 
HETATM    4  O   UNL     1      35.379 -16.263 -17.775  1.00  0.00    -0.650 OA
BRANCH   3   5
HETATM    5  C   UNL     1      36.755 -15.046 -16.283  1.00  0.00     0.110 C 
BRANCH   5   6
HETATM    6  C   UNL     1      36.202 -15.861 -15.105  1.00  0.00     0.014 C 
BRANCH   6   7
HETATM    7  C   UNL     1      34.972 -15.209 -14.461  1.00  0.00     0.027 C 
BRANCH   7   8
HETATM    8  C   UNL     1      34.616 -15.941 -13.191  1.00  0.00    -0.030 C 
HETATM    9  C   UNL     1      33.388 -15.989 -12.641  1.00  0.00    -0.027 C 
BRANCH   9  10
HETATM   10  C   UNL     1      32.150 -15.342 -13.208  1.00  0.00     0.053 C 
BRANCH  10  11
HETATM   11  C   UNL     1      31.943 -13.957 -12.635  1.00  0.00    -0.027 C 
HETATM   12  C   UNL     1      32.090 -12.776 -13.270  1.00  0.00    -0.027 C 
BRANCH  12  13
HETATM   13  C   UNL     1      32.477 -12.562 -14.711  1.00  0.00     0.053 C 
BRANCH  13  14
HETATM   14  C   UNL     1      31.263 -12.707 -15.599  1.00  0.00    -0.027 C 
HETATM   15  C   UNL     1      31.123 -13.631 -16.572  1.00  0.00    -0.027 C 
BRANCH  15  16
HETATM   16  C   UNL     1      32.167 -14.654 -16.935  1.00  0.00     0.053 C 
BRANCH  16  17
HETATM   17  C   UNL     1      31.897 -15.262 -18.289  1.00  0.00    -0.027 C 
HETATM   18  C   UNL     1      32.023 -14.595 -19.449  1.00  0.00    -0.030 C 
BRANCH  18  19
HETATM   19  C   UNL     1      32.436 -13.150 -19.570  1.00  0.00     0.027 C 
BRANCH  19  20
HETATM   20  C   UNL     1      31.743 -12.515 -20.779  1.00  0.00     0.004 C 
BRANCH  20  21
HETATM   21  C   UNL     1      31.160 -13.585 -21.709  1.00  0.00    -0.000 C 
BRANCH  21  22
HETATM   22  C   UNL     1      31.516 -13.290 -23.171  1.00  0.00    -0.005 C 
HETATM   23  C   UNL     1      31.489 -14.563 -24.012  1.00  0.00     0.005 C 
ENDBRANCH  21  22
ENDBRANCH  20  21
ENDBRANCH  19  20
ENDBRANCH  18  19
ENDBRANCH  16  17
ENDBRANCH  15  16
ENDBRANCH  13  14
ENDBRANCH  12  13
ENDBRANCH  10  11
ENDBRANCH   9  10
ENDBRANCH   7   8
ENDBRANCH   6   7
ENDBRANCH   5   6
ENDBRANCH   3   5
ENDBRANCH   1   3
TORSDOF 15
ENDMDL
MODEL 7
REMARK VINA RESULT:      -5.4      2.536      6.273
REMARK  15 active torsions:
REMARK  status: ('A' for Active; 'I' for Inactive)
REMARK    1  A    between atoms: O_1  and  C_22 
REMARK    2  A    between atoms: C_3  and  C_4 
REMARK    3  A    between atoms: C_3  and  C_5 
REMARK    4  A    between atoms: C_4  and  C_6 
REMARK    5  A    between atoms: C_5  and  C_7 
REMARK    6  A    between atoms: C_9  and  C_10 
REMARK    7  A    between atoms: C_9  and  C_13 
REMARK    8  A    between atoms: C_10  and  C_14 
REMARK    9  A    between atoms: C_11  and  C_12 
REMARK   10  A    between atoms: C_12  and  C_16 
REMARK   11  A    between atoms: C_13  and  C_22 
REMARK   12  A    between atoms: C_15  and  C_17 
REMARK   13  A    between atoms: C_15  and  C_20 
REMARK   14  A    between atoms: C_18  and  C_19 
REMARK   15  A    between atoms: C_18  and  C_21 
ROOT
HETATM    1  O   UNL     1      35.729 -13.524 -17.331  1.00  0.00    -0.776 OA
HETATM    2  H   UNL     1      36.287 -12.971 -17.896  1.00  0.00     0.167 HD
ENDROOT
BRANCH   1   3
HETATM    3  C   UNL     1      35.991 -14.837 -17.152  1.00  0.00     0.139 C 
HETATM    4  O   UNL     1      35.326 -15.492 -16.363  1.00  0.00    -0.650 OA
BRANCH   3   5
HETATM    5  C   UNL     1      37.110 -15.486 -17.918  1.00  0.00     0.110 C 
BRANCH   5   6
HETATM    6  C   UNL     1      37.146 -15.044 -19.388  1.00  0.00     0.014 C 
BRANCH   6   7
HETATM    7  C   UNL     1      36.659 -16.139 -20.347  1.00  0.00     0.027 C 
BRANCH   7   8
HETATM    8  C   UNL     1      37.077 -15.802 -21.756  1.00  0.00    -0.030 C 
HETATM    9  C   UNL     1      36.376 -15.035 -22.612  1.00  0.00    -0.027 C 
BRANCH   9  10
HETATM   10  C   UNL     1      35.064 -14.358 -22.306  1.00  0.00     0.053 C 
BRANCH  10  11
HETATM   11  C   UNL     1      33.901 -15.126 -22.893  1.00  0.00    -0.027 C 
HETATM   12  C   UNL     1      32.683 -14.647 -23.219  1.00  0.00    -0.027 C 
BRANCH  12  13
HETATM   13  C   UNL     1      32.203 -13.224 -23.090  1.00  0.00     0.053 C 
BRANCH  13  14
HETATM   14  C   UNL     1      31.063 -13.150 -22.102  1.00  0.00    -0.027 C 
HETATM   15  C   UNL     1      31.202 -12.965 -20.773  1.00  0.00    -0.027 C 
BRANCH  15  16
HETATM   16  C   UNL     1      32.524 -12.820 -20.065  1.00  0.00     0.053 C 
BRANCH  16  17
HETATM   17  C   UNL     1      32.744 -13.934 -19.073  1.00  0.00    -0.027 C 
HETATM   18  C   UNL     1      32.297 -13.908 -17.805  1.00  0.00    -0.030 C 
BRANCH  18  19
HETATM   19  C   UNL     1      31.527 -12.769 -17.188  1.00  0.00     0.027 C 
BRANCH  19  20
HETATM   20  C   UNL     1      31.296 -13.050 -15.699  1.00  0.00     0.004 C 
BRANCH  20  21
HETATM   21  C   UNL     1      31.272 -14.556 -15.416  1.00  0.00    -0.000 C 
BRANCH  21  22
HETATM   22  C   UNL     1      31.478 -14.835 -13.923  1.00  0.00    -0.005 C 
HETATM   23  C   UNL     1      32.859 -15.425 -13.657  1.00  0.00     0.005 C 
ENDBRANCH  21  22
ENDBRANCH  20  21
ENDBRANCH  19  20
ENDBRANCH  18  19
ENDBRANCH  16  17
ENDBRANCH  15  16
ENDBRANCH  13  14
ENDBRANCH  12  13
ENDBRANCH  10  11
ENDBRANCH   9  10
ENDBRANCH   7   8
ENDBRANCH   6   7
ENDBRANCH   5   6
ENDBRANCH   3   5
ENDBRANCH   1   3
TORSDOF 15
ENDMDL
MODEL 8
REMARK VINA RESULT:      -5.3      3.829      7.039
REMARK  15 active torsions:
REMARK  status: ('A' for Active; 'I' for Inactive)
REMARK    1  A    between atoms: O_1  and  C_22 
REMARK    2  A    between atoms: C_3  and  C_4 
REMARK    3  A    between atoms: C_3  and  C_5 
REMARK    4  A    between atoms: C_4  and  C_6 
REMARK    5  A    between atoms: C_5  and  C_7 
REMARK    6  A    between atoms: C_9  and  C_10 
REMARK    7  A    between atoms: C_9  and  C_13 
REMARK    8  A    between atoms: C_10  and  C_14 
REMARK    9  A    between atoms: C_11  and  C_12 
REMARK   10  A    between atoms: C_12  and  C_16 
REMARK   11  A    between atoms: C_13  and  C_22 
REMARK   12  A    between atoms: C_15  and  C_17 
REMARK   13  A    between atoms: C_15  and  C_20 
REMARK   14  A    between atoms: C_18  and  C_19 
REMARK   15  A    between atoms: C_18  and  C_21 
ROOT
HETATM    1  O   UNL     1      31.724 -15.949 -12.752  1.00  0.00    -0.776 OA
HETATM    2  H   UNL     1      31.824 -16.785 -13.229  1.00  0.00     0.167 HD
ENDROOT
BRANCH   1   3
HETATM    3  C   UNL     1      32.450 -14.860 -13.082  1.00  0.00     0.139 C 
HETATM    4  O   UNL     1      33.667 -14.936 -13.160  1.00  0.00    -0.650 OA
BRANCH   3   5
HETATM    5  C   UNL     1      31.757 -13.551 -13.341  1.00  0.00     0.110 C 
BRANCH   5   6
HETATM    6  C   UNL     1      31.896 -12.573 -12.166  1.00  0.00     0.014 C 
BRANCH   6   7
HETATM    7  C   UNL     1      31.426 -13.176 -10.836  1.00  0.00     0.027 C 
BRANCH   7   8
HETATM    8  C   UNL     1      32.284 -12.657  -9.710  1.00  0.00    -0.030 C 
HETATM    9  C   UNL     1      32.899 -13.421  -8.787  1.00  0.00    -0.027 C 
BRANCH   9  10
HETATM   10  C   UNL     1      32.858 -14.927  -8.730  1.00  0.00     0.053 C 
BRANCH  10  11
HETATM   11  C   UNL     1      34.124 -15.487  -8.118  1.00  0.00    -0.027 C 
HETATM   12  C   UNL     1      35.275 -15.793  -8.751  1.00  0.00    -0.027 C 
BRANCH  12  13
HETATM   13  C   UNL     1      35.575 -15.628 -10.219  1.00  0.00     0.053 C 
BRANCH  13  14
HETATM   14  C   UNL     1      36.960 -15.056 -10.403  1.00  0.00    -0.027 C 
HETATM   15  C   UNL     1      37.650 -15.055 -11.562  1.00  0.00    -0.027 C 
BRANCH  15  16
HETATM   16  C   UNL     1      37.147 -15.642 -12.855  1.00  0.00     0.053 C 
BRANCH  16  17
HETATM   17  C   UNL     1      37.878 -15.069 -14.043  1.00  0.00    -0.027 C 
HETATM   18  C   UNL     1      37.523 -15.292 -15.321  1.00  0.00    -0.030 C 
BRANCH  18  19
HETATM   19  C   UNL     1      36.359 -16.148 -15.753  1.00  0.00     0.027 C 
BRANCH  19  20
HETATM   20  C   UNL     1      35.985 -15.815 -17.201  1.00  0.00     0.004 C 
BRANCH  20  21
HETATM   21  C   UNL     1      35.470 -14.377 -17.324  1.00  0.00    -0.000 C 
BRANCH  21  22
HETATM   22  C   UNL     1      34.177 -14.189 -16.522  1.00  0.00    -0.005 C 
HETATM   23  C   UNL     1      33.161 -15.279 -16.851  1.00  0.00     0.005 C 
ENDBRANCH  21  22
ENDBRANCH  20  21
ENDBRANCH  19  20
ENDBRANCH  18  19
ENDBRANCH  16  17
ENDBRANCH  15  16
ENDBRANCH  13  14
ENDBRANCH  12  13
ENDBRANCH  10  11
ENDBRANCH   9  10
ENDBRANCH   7   8
ENDBRANCH   6   7
ENDBRANCH   5   6
ENDBRANCH   3   5
ENDBRANCH   1   3
TORSDOF 15
ENDMDL
MODEL 9
REMARK VINA RESULT:      -5.2      5.001      8.190
REMARK  15 active torsions:
REMARK  status: ('A' for Active; 'I' for Inactive)
REMARK    1  A    between atoms: O_1  and  C_22 
REMARK    2  A    between atoms: C_3  and  C_4 
REMARK    3  A    between atoms: C_3  and  C_5 
REMARK    4  A    between atoms: C_4  and  C_6 
REMARK    5  A    between atoms: C_5  and  C_7 
REMARK    6  A    between atoms: C_9  and  C_10 
REMARK    7  A    between atoms: C_9  and  C_13 
REMARK    8  A    between atoms: C_10  and  C_14 
REMARK    9  A    between atoms: C_11  and  C_12 
REMARK   10  A    between atoms: C_12  and  C_16 
REMARK   11  A    between atoms: C_13  and  C_22 
REMARK   12  A    between atoms: C_15  and  C_17 
REMARK   13  A    between atoms: C_15  and  C_20 
REMARK   14  A    between atoms: C_18  and  C_19 
REMARK   15  A    between atoms: C_18  and  C_21 
ROOT
HETATM    1  O   UNL     1      36.642 -14.405  -8.208  1.00  0.00    -0.776 OA
HETATM    2  H   UNL     1      36.965 -14.854  -7.414  1.00  0.00     0.167 HD
ENDROOT
BRANCH   1   3
HETATM    3  C   UNL     1      36.291 -15.096  -9.313  1.00  0.00     0.139 C 
HETATM    4  O   UNL     1      37.119 -15.317 -10.185  1.00  0.00    -0.650 OA
BRANCH   3   5
HETATM    5  C   UNL     1      34.877 -15.581  -9.475  1.00  0.00     0.110 C 
BRANCH   5   6
HETATM    6  C   UNL     1      33.993 -15.213  -8.275  1.00  0.00     0.014 C 
BRANCH   6   7
HETATM    7  C   UNL     1      32.519 -15.578  -8.492  1.00  0.00     0.027 C 
BRANCH   7   8
HETATM    8  C   UNL     1      31.637 -14.507  -7.900  1.00  0.00    -0.030 C 
HETATM    9  C   UNL     1      31.495 -13.261  -8.389  1.00  0.00    -0.027 C 
BRANCH   9  10
HETATM   10  C   UNL     1      32.172 -12.724  -9.624  1.00  0.00     0.053 C 
BRANCH  10  11
HETATM   11  C   UNL     1      31.203 -12.628 -10.782  1.00  0.00    -0.027 C 
HETATM   12  C   UNL     1      31.081 -13.478 -11.822  1.00  0.00    -0.027 C 
BRANCH  12  13
HETATM   13  C   UNL     1      31.872 -14.738 -12.062  1.00  0.00     0.053 C 
BRANCH  13  14
HETATM   14  C   UNL     1      31.480 -15.351 -13.385  1.00  0.00    -0.027 C 
HETATM   15  C   UNL     1      31.887 -14.910 -14.593  1.00  0.00    -0.027 C 
BRANCH  15  16
HETATM   16  C   UNL     1      32.788 -13.722 -14.809  1.00  0.00     0.053 C 
BRANCH  16  17
HETATM   17  C   UNL     1      32.006 -12.509 -15.249  1.00  0.00    -0.027 C 
HETATM   18  C   UNL     1      32.211 -11.867 -16.412  1.00  0.00    -0.030 C 
BRANCH  18  19
HETATM   19  C   UNL     1      33.250 -12.251 -17.436  1.00  0.00     0.027 C 
BRANCH  19  20
HETATM   20  C   UNL     1      32.558 -12.749 -18.709  1.00  0.00     0.004 C 
BRANCH  20  21
HETATM   21  C   UNL     1      32.088 -14.199 -18.554  1.00  0.00    -0.000 C 
BRANCH  21  22
HETATM   22  C   UNL     1      31.443 -14.706 -19.849  1.00  0.00    -0.005 C 
HETATM   23  C   UNL     1      31.393 -13.607 -20.906  1.00  0.00     0.005 C 
ENDBRANCH  21  22
ENDBRANCH  20  21
ENDBRANCH  19  20
ENDBRANCH  18  19
ENDBRANCH  16  17
ENDBRANCH  15  16
ENDBRANCH  13  14
ENDBRANCH  12  13
ENDBRANCH  10  11
ENDBRANCH   9  10
ENDBRANCH   7   8
ENDBRANCH   6   7
ENDBRANCH   5   6
ENDBRANCH   3   5
ENDBRANCH   1   3
TORSDOF 15
ENDMDL
MODEL 10
REMARK VINA RESULT:      -5.2      2.384      5.659
REMARK  15 active torsions:
REMARK  status: ('A' for Active; 'I' for Inactive)
REMARK    1  A    between atoms: O_1  and  C_22 
REMARK    2  A    between atoms: C_3  and  C_4 
REMARK    3  A    between atoms: C_3  and  C_5 
REMARK    4  A    between atoms: C_4  and  C_6 
REMARK    5  A    between atoms: C_5  and  C_7 
REMARK    6  A    between atoms: C_9  and  C_10 
REMARK    7  A    between atoms: C_9  and  C_13 
REMARK    8  A    between atoms: C_10  and  C_14 
REMARK    9  A    between atoms: C_11  and  C_12 
REMARK   10  A    between atoms: C_12  and  C_16 
REMARK   11  A    between atoms: C_13  and  C_22 
REMARK   12  A    between atoms: C_15  and  C_17 
REMARK   13  A    between atoms: C_15  and  C_20 
REMARK   14  A    between atoms: C_18  and  C_19 
REMARK   15  A    between atoms: C_18  and  C_21 
ROOT
HETATM    1  O   UNL     1      37.401 -14.286 -17.034  1.00  0.00    -0.776 OA
HETATM    2  H   UNL     1      36.711 -13.612 -16.961  1.00  0.00     0.167 HD
ENDROOT
BRANCH   1   3
HETATM    3  C   UNL     1      37.260 -15.351 -17.852  1.00  0.00     0.139 C 
HETATM    4  O   UNL     1      36.521 -16.272 -17.537  1.00  0.00    -0.650 OA
BRANCH   3   5
HETATM    5  C   UNL     1      38.025 -15.406 -19.146  1.00  0.00     0.110 C 
BRANCH   5   6
HETATM    6  C   UNL     1      37.213 -14.857 -20.328  1.00  0.00     0.014 C 
BRANCH   6   7
HETATM    7  C   UNL     1      35.967 -15.697 -20.631  1.00  0.00     0.027 C 
BRANCH   7   8
HETATM    8  C   UNL     1      35.002 -14.893 -21.466  1.00  0.00    -0.030 C 
HETATM    9  C   UNL     1      33.952 -14.199 -20.986  1.00  0.00    -0.027 C 
BRANCH   9  10
HETATM   10  C   UNL     1      33.570 -14.084 -19.532  1.00  0.00     0.053 C 
BRANCH  10  11
HETATM   11  C   UNL     1      32.653 -15.212 -19.116  1.00  0.00    -0.027 C 
HETATM   12  C   UNL     1      31.810 -15.238 -18.063  1.00  0.00    -0.027 C 
BRANCH  12  13
HETATM   13  C   UNL     1      31.571 -14.134 -17.065  1.00  0.00     0.053 C 
BRANCH  13  14
HETATM   14  C   UNL     1      31.184 -14.721 -15.728  1.00  0.00    -0.027 C 
HETATM   15  C   UNL     1      31.942 -14.674 -14.613  1.00  0.00    -0.027 C 
BRANCH  15  16
HETATM   16  C   UNL     1      33.306 -14.040 -14.535  1.00  0.00     0.053 C 
BRANCH  16  17
HETATM   17  C   UNL     1      34.380 -14.976 -15.030  1.00  0.00    -0.027 C 
HETATM   18  C   UNL     1      35.303 -15.545 -14.235  1.00  0.00    -0.030 C 
BRANCH  18  19
HETATM   19  C   UNL     1      35.410 -15.325 -12.747  1.00  0.00     0.027 C 
BRANCH  19  20
HETATM   20  C   UNL     1      36.818 -15.699 -12.271  1.00  0.00     0.004 C 
BRANCH  20  21
HETATM   21  C   UNL     1      37.385 -14.635 -11.326  1.00  0.00    -0.000 C 
BRANCH  21  22
HETATM   22  C   UNL     1      37.870 -15.269 -10.017  1.00  0.00    -0.005 C 
HETATM   23  C   UNL     1      36.755 -15.310  -8.977  1.00  0.00     0.005 C 
ENDBRANCH  21  22
ENDBRANCH  20  21
ENDBRANCH  19  20
ENDBRANCH  18  19
ENDBRANCH  16  17
ENDBRANCH  15  16
ENDBRANCH  13  14
ENDBRANCH  12  13
ENDBRANCH  10  11
ENDBRANCH   9  10
ENDBRANCH   7   8
ENDBRANCH   6   7
ENDBRANCH   5   6
ENDBRANCH   3   5
ENDBRANCH   1   3
TORSDOF 15
ENDMDL
MODEL 11
REMARK VINA RESULT:      -5.1      1.872      4.899
REMARK  15 active torsions:
REMARK  status: ('A' for Active; 'I' for Inactive)
REMARK    1  A    between atoms: O_1  and  C_22 
REMARK    2  A    between atoms: C_3  and  C_4 
REMARK    3  A    between atoms: C_3  and  C_5 
REMARK    4  A    between atoms: C_4  and  C_6 
REMARK    5  A    between atoms: C_5  and  C_7 
REMARK    6  A    between atoms: C_9  and  C_10 
REMARK    7  A    between atoms: C_9  and  C_13 
REMARK    8  A    between atoms: C_10  and  C_14 
REMARK    9  A    between atoms: C_11  and  C_12 
REMARK   10  A    between atoms: C_12  and  C_16 
REMARK   11  A    between atoms: C_13  and  C_22 
REMARK   12  A    between atoms: C_15  and  C_17 
REMARK   13  A    between atoms: C_15  and  C_20 
REMARK   14  A    between atoms: C_18  and  C_19 
REMARK   15  A    between atoms: C_18  and  C_21 
ROOT
HETATM    1  O   UNL     1      32.490 -12.036 -22.595  1.00  0.00    -0.776 OA
HETATM    2  H   UNL     1      32.165 -11.379 -23.226  1.00  0.00     0.167 HD
ENDROOT
BRANCH   1   3
HETATM    3  C   UNL     1      31.724 -13.078 -22.207  1.00  0.00     0.139 C 
HETATM    4  O   UNL     1      31.809 -14.151 -22.788  1.00  0.00    -0.650 OA
BRANCH   3   5
HETATM    5  C   UNL     1      30.757 -12.912 -21.067  1.00  0.00     0.110 C 
BRANCH   5   6
HETATM    6  C   UNL     1      31.388 -13.260 -19.712  1.00  0.00     0.014 C 
BRANCH   6   7
HETATM    7  C   UNL     1      32.795 -12.673 -19.545  1.00  0.00     0.027 C 
BRANCH   7   8
HETATM    8  C   UNL     1      33.521 -13.399 -18.440  1.00  0.00    -0.030 C 
HETATM    9  C   UNL     1      33.356 -13.172 -17.124  1.00  0.00    -0.027 C 
BRANCH   9  10
HETATM   10  C   UNL     1      32.402 -12.172 -16.521  1.00  0.00     0.053 C 
BRANCH  10  11
HETATM   11  C   UNL     1      31.427 -12.843 -15.579  1.00  0.00    -0.027 C 
HETATM   12  C   UNL     1      31.705 -13.453 -14.409  1.00  0.00    -0.027 C 
BRANCH  12  13
HETATM   13  C   UNL     1      33.057 -13.590 -13.755  1.00  0.00     0.053 C 
BRANCH  13  14
HETATM   14  C   UNL     1      33.357 -15.046 -13.488  1.00  0.00    -0.027 C 
HETATM   15  C   UNL     1      34.576 -15.543 -13.196  1.00  0.00    -0.027 C 
BRANCH  15  16
HETATM   16  C   UNL     1      35.835 -14.721 -13.109  1.00  0.00     0.053 C 
BRANCH  16  17
HETATM   17  C   UNL     1      37.021 -15.463 -13.674  1.00  0.00    -0.027 C 
HETATM   18  C   UNL     1      37.368 -15.443 -14.972  1.00  0.00    -0.030 C 
BRANCH  18  19
HETATM   19  C   UNL     1      36.625 -14.694 -16.050  1.00  0.00     0.027 C 
BRANCH  19  20
HETATM   20  C   UNL     1      36.455 -15.594 -17.279  1.00  0.00     0.004 C 
BRANCH  20  21
HETATM   21  C   UNL     1      37.635 -15.441 -18.245  1.00  0.00    -0.000 C 
BRANCH  21  22
HETATM   22  C   UNL     1      37.146 -15.055 -19.646  1.00  0.00    -0.005 C 
HETATM   23  C   UNL     1      35.885 -15.827 -20.023  1.00  0.00     0.005 C 
ENDBRANCH  21  22
ENDBRANCH  20  21
ENDBRANCH  19  20
ENDBRANCH  18  19
ENDBRANCH  16  17
ENDBRANCH  15  16
ENDBRANCH  13  14
ENDBRANCH  12  13
ENDBRANCH  10  11
ENDBRANCH   9  10
ENDBRANCH   7   8
ENDBRANCH   6   7
ENDBRANCH   5   6
ENDBRANCH   3   5
ENDBRANCH   1   3
TORSDOF 15
ENDMDL
MODEL 12
REMARK VINA RESULT:      -5.1      2.288      4.744
REMARK  15 active torsions:
REMARK  status: ('A' for Active; 'I' for Inactive)
REMARK    1  A    between atoms: O_1  and  C_22 
REMARK    2  A    between atoms: C_3  and  C_4 
REMARK    3  A    between atoms: C_3  and  C_5 
REMARK    4  A    between atoms: C_4  and  C_6 
REMARK    5  A    between atoms: C_5  and  C_7 
REMARK    6  A    between atoms: C_9  and  C_10 
REMARK    7  A    between atoms: C_9  and  C_13 
REMARK    8  A    between atoms: C_10  and  C_14 
REMARK    9  A    between atoms: C_11  and  C_12 
REMARK   10  A    between atoms: C_12  and  C_16 
REMARK   11  A    between atoms: C_13  and  C_22 
REMARK   12  A    between atoms: C_15  and  C_17 
REMARK   13  A    between atoms: C_15  and  C_20 
REMARK   14  A    between atoms: C_18  and  C_19 
REMARK   15  A    between atoms: C_18  and  C_21 
ROOT
HETATM    1  O   UNL     1      30.755 -14.167 -21.690  1.00  0.00    -0.776 OA
HETATM    2  H   UNL     1      29.855 -14.521 -21.647  1.00  0.00     0.167 HD
ENDROOT
BRANCH   1   3
HETATM    3  C   UNL     1      31.087 -13.014 -21.072  1.00  0.00     0.139 C 
HETATM    4  O   UNL     1      30.212 -12.271 -20.651  1.00  0.00    -0.650 OA
BRANCH   3   5
HETATM    5  C   UNL     1      32.535 -12.641 -20.913  1.00  0.00     0.110 C 
BRANCH   5   6
HETATM    6  C   UNL     1      33.461 -13.865 -20.949  1.00  0.00     0.014 C 
BRANCH   6   7
HETATM    7  C   UNL     1      33.858 -14.346 -19.547  1.00  0.00     0.027 C 
BRANCH   7   8
HETATM    8  C   UNL     1      32.879 -15.389 -19.071  1.00  0.00    -0.030 C 
HETATM    9  C   UNL     1      32.503 -15.574 -17.791  1.00  0.00    -0.027 C 
BRANCH   9  10
HETATM   10  C   UNL     1      32.975 -14.758 -16.615  1.00  0.00     0.053 C 
BRANCH  10  11
HETATM   11  C   UNL     1      32.164 -13.490 -16.467  1.00  0.00    -0.027 C 
HETATM   12  C   UNL     1      31.555 -13.030 -15.354  1.00  0.00    -0.027 C 
BRANCH  12  13
HETATM   13  C   UNL     1      31.559 -13.668 -13.988  1.00  0.00     0.053 C 
BRANCH  13  14
HETATM   14  C   UNL     1      32.126 -12.707 -12.970  1.00  0.00    -0.027 C 
HETATM   15  C   UNL     1      32.822 -13.066 -11.872  1.00  0.00    -0.027 C 
BRANCH  15  16
HETATM   16  C   UNL     1      33.127 -14.488 -11.481  1.00  0.00     0.053 C 
BRANCH  16  17
HETATM   17  C   UNL     1      34.504 -14.612 -10.878  1.00  0.00    -0.027 C 
HETATM   18  C   UNL     1      35.530 -15.242 -11.477  1.00  0.00    -0.030 C 
BRANCH  18  19
HETATM   19  C   UNL     1      35.457 -15.921 -12.821  1.00  0.00     0.027 C 
BRANCH  19  20
HETATM   20  C   UNL     1      36.495 -15.307 -13.765  1.00  0.00     0.004 C 
BRANCH  20  21
HETATM   21  C   UNL     1      36.385 -15.902 -15.173  1.00  0.00    -0.000 C 
BRANCH  21  22
HETATM   22  C   UNL     1      37.288 -15.149 -16.157  1.00  0.00    -0.005 C 
HETATM   23  C   UNL     1      36.798 -15.314 -17.592  1.00  0.00     0.005 C 
ENDBRANCH  21  22
ENDBRANCH  20  21
ENDBRANCH  19  20
ENDBRANCH  18  19
ENDBRANCH  16  17
ENDBRANCH  15  16
ENDBRANCH  13  14
ENDBRANCH  12  13
ENDBRANCH  10  11
ENDBRANCH   9  10
ENDBRANCH   7   8
ENDBRANCH   6   7
ENDBRANCH   5   6
ENDBRANCH   3   5
ENDBRANCH   1   3
TORSDOF 15
ENDMDL
MODEL 13
REMARK VINA RESULT:      -5.0     13.800     16.554
REMARK  15 active torsions:
REMARK  status: ('A' for Active; 'I' for Inactive)
REMARK    1  A    between atoms: O_1  and  C_22 
REMARK    2  A    between atoms: C_3  and  C_4 
REMARK    3  A    between atoms: C_3  and  C_5 
REMARK    4  A    between atoms: C_4  and  C_6 
REMARK    5  A    between atoms: C_5  and  C_7 
REMARK    6  A    between atoms: C_9  and  C_10 
REMARK    7  A    between atoms: C_9  and  C_13 
REMARK    8  A    between atoms: C_10  and  C_14 
REMARK    9  A    between atoms: C_11  and  C_12 
REMARK   10  A    between atoms: C_12  and  C_16 
REMARK   11  A    between atoms: C_13  and  C_22 
REMARK   12  A    between atoms: C_15  and  C_17 
REMARK   13  A    between atoms: C_15  and  C_20 
REMARK   14  A    between atoms: C_18  and  C_19 
REMARK   15  A    between atoms: C_18  and  C_21 
ROOT
HETATM    1  O   UNL     1      50.486  -6.024  -8.797  1.00  0.00    -0.776 OA
HETATM    2  H   UNL     1      49.710  -6.335  -8.311  1.00  0.00     0.167 HD
ENDROOT
BRANCH   1   3
HETATM    3  C   UNL     1      50.819  -6.542  -9.998  1.00  0.00     0.139 C 
HETATM    4  O   UNL     1      51.152  -5.804 -10.913  1.00  0.00    -0.650 OA
BRANCH   3   5
HETATM    5  C   UNL     1      50.766  -8.031 -10.210  1.00  0.00     0.110 C 
BRANCH   5   6
HETATM    6  C   UNL     1      49.781  -8.428 -11.319  1.00  0.00     0.014 C 
BRANCH   6   7
HETATM    7  C   UNL     1      49.013  -9.716 -10.995  1.00  0.00     0.027 C 
BRANCH   7   8
HETATM    8  C   UNL     1      48.945 -10.589 -12.222  1.00  0.00    -0.030 C 
HETATM    9  C   UNL     1      47.822 -10.882 -12.905  1.00  0.00    -0.027 C 
BRANCH   9  10
HETATM   10  C   UNL     1      46.442 -10.371 -12.579  1.00  0.00     0.053 C 
BRANCH  10  11
HETATM   11  C   UNL     1      45.704  -9.947 -13.830  1.00  0.00    -0.027 C 
HETATM   12  C   UNL     1      45.821  -8.780 -14.495  1.00  0.00    -0.027 C 
BRANCH  12  13
HETATM   13  C   UNL     1      46.733  -7.628 -14.154  1.00  0.00     0.053 C 
BRANCH  13  14
HETATM   14  C   UNL     1      45.921  -6.457 -13.654  1.00  0.00    -0.027 C 
HETATM   15  C   UNL     1      45.751  -6.132 -12.356  1.00  0.00    -0.027 C 
BRANCH  15  16
HETATM   16  C   UNL     1      46.333  -6.902 -11.200  1.00  0.00     0.053 C 
BRANCH  16  17
HETATM   17  C   UNL     1      45.501  -6.740  -9.952  1.00  0.00    -0.027 C 
HETATM   18  C   UNL     1      45.800  -7.309  -8.771  1.00  0.00    -0.030 C 
BRANCH  18  19
HETATM   19  C   UNL     1      46.993  -8.197  -8.523  1.00  0.00     0.027 C 
BRANCH  19  20
HETATM   20  C   UNL     1      46.524  -9.638  -8.294  1.00  0.00     0.004 C 
BRANCH  20  21
HETATM   21  C   UNL     1      47.092 -10.206  -6.989  1.00  0.00    -0.000 C 
BRANCH  21  22
HETATM   22  C   UNL     1      48.396 -10.969  -7.247  1.00  0.00    -0.005 C 
HETATM   23  C   UNL     1      48.185 -12.097  -8.252  1.00  0.00     0.005 C 
ENDBRANCH  21  22
ENDBRANCH  20  21
ENDBRANCH  19  20
ENDBRANCH  18  19
ENDBRANCH  16  17
ENDBRANCH  15  16
ENDBRANCH  13  14
ENDBRANCH  12  13
ENDBRANCH  10  11
ENDBRANCH   9  10
ENDBRANCH   7   8
ENDBRANCH   6   7
ENDBRANCH   5   6
ENDBRANCH   3   5
ENDBRANCH   1   3
TORSDOF 15
ENDMDL
MODEL 14
REMARK VINA RESULT:      -5.0      2.427      4.823
REMARK  15 active torsions:
REMARK  status: ('A' for Active; 'I' for Inactive)
REMARK    1  A    between atoms: O_1  and  C_22 
REMARK    2  A    between atoms: C_3  and  C_4 
REMARK    3  A    between atoms: C_3  and  C_5 
REMARK    4  A    between atoms: C_4  and  C_6 
REMARK    5  A    between atoms: C_5  and  C_7 
REMARK    6  A    between atoms: C_9  and  C_10 
REMARK    7  A    between atoms: C_9  and  C_13 
REMARK    8  A    between atoms: C_10  and  C_14 
REMARK    9  A    between atoms: C_11  and  C_12 
REMARK   10  A    between atoms: C_12  and  C_16 
REMARK   11  A    between atoms: C_13  and  C_22 
REMARK   12  A    between atoms: C_15  and  C_17 
REMARK   13  A    between atoms: C_15  and  C_20 
REMARK   14  A    between atoms: C_18  and  C_19 
REMARK   15  A    between atoms: C_18  and  C_21 
ROOT
HETATM    1  O   UNL     1      33.674 -12.748 -20.621  1.00  0.00    -0.776 OA
HETATM    2  H   UNL     1      34.270 -12.279 -20.019  1.00  0.00     0.167 HD
ENDROOT
BRANCH   1   3
HETATM    3  C   UNL     1      32.335 -12.711 -20.455  1.00  0.00     0.139 C 
HETATM    4  O   UNL     1      31.629 -12.161 -21.287  1.00  0.00    -0.650 OA
BRANCH   3   5
HETATM    5  C   UNL     1      31.715 -13.339 -19.237  1.00  0.00     0.110 C 
BRANCH   5   6
HETATM    6  C   UNL     1      32.755 -14.028 -18.342  1.00  0.00     0.014 C 
BRANCH   6   7
HETATM    7  C   UNL     1      32.152 -15.154 -17.492  1.00  0.00     0.027 C 
BRANCH   7   8
HETATM    8  C   UNL     1      31.095 -14.588 -16.576  1.00  0.00    -0.030 C 
HETATM    9  C   UNL     1      31.333 -13.980 -15.398  1.00  0.00    -0.027 C 
BRANCH   9  10
HETATM   10  C   UNL     1      32.696 -13.738 -14.799  1.00  0.00     0.053 C 
BRANCH  10  11
HETATM   11  C   UNL     1      33.253 -14.998 -14.176  1.00  0.00    -0.027 C 
HETATM   12  C   UNL     1      34.535 -15.418 -14.180  1.00  0.00    -0.027 C 
BRANCH  12  13
HETATM   13  C   UNL     1      35.718 -14.715 -14.794  1.00  0.00     0.053 C 
BRANCH  13  14
HETATM   14  C   UNL     1      36.993 -15.443 -14.440  1.00  0.00    -0.027 C 
HETATM   15  C   UNL     1      37.555 -15.468 -13.215  1.00  0.00    -0.027 C 
BRANCH  15  16
HETATM   16  C   UNL     1      37.003 -14.757 -12.007  1.00  0.00     0.053 C 
BRANCH  16  17
HETATM   17  C   UNL     1      36.612 -15.729 -10.923  1.00  0.00    -0.027 C 
HETATM   18  C   UNL     1      35.450 -15.673 -10.249  1.00  0.00    -0.030 C 
BRANCH  18  19
HETATM   19  C   UNL     1      34.379 -14.634 -10.465  1.00  0.00     0.027 C 
BRANCH  19  20
HETATM   20  C   UNL     1      33.070 -15.101  -9.820  1.00  0.00     0.004 C 
BRANCH  20  21
HETATM   21  C   UNL     1      31.863 -14.738 -10.690  1.00  0.00    -0.000 C 
BRANCH  21  22
HETATM   22  C   UNL     1      31.331 -13.344 -10.334  1.00  0.00    -0.005 C 
HETATM   23  C   UNL     1      31.368 -12.415 -11.543  1.00  0.00     0.005 C 
ENDBRANCH  21  22
ENDBRANCH  20  21
ENDBRANCH  19  20
ENDBRANCH  18  19
ENDBRANCH  16  17
ENDBRANCH  15  16
ENDBRANCH  13  14
ENDBRANCH  12  13
ENDBRANCH  10  11
ENDBRANCH   9  10
ENDBRANCH   7   8
ENDBRANCH   6   7
ENDBRANCH   5   6
ENDBRANCH   3   5
ENDBRANCH   1   3
TORSDOF 15
ENDMDL
MODEL 15
REMARK VINA RESULT:      -5.0      2.728      5.169
REMARK  15 active torsions:
REMARK  status: ('A' for Active; 'I' for Inactive)
REMARK    1  A    between atoms: O_1  and  C_22 
REMARK    2  A    between atoms: C_3  and  C_4 
REMARK    3  A    between atoms: C_3  and  C_5 
REMARK    4  A    between atoms: C_4  and  C_6 
REMARK    5  A    between atoms: C_5  and  C_7 
REMARK    6  A    between atoms: C_9  and  C_10 
REMARK    7  A    between atoms: C_9  and  C_13 
REMARK    8  A    between atoms: C_10  and  C_14 
REMARK    9  A    between atoms: C_11  and  C_12 
REMARK   10  A    between atoms: C_12  and  C_16 
REMARK   11  A    between atoms: C_13  and  C_22 
REMARK   12  A    between atoms: C_15  and  C_17 
REMARK   13  A    between atoms: C_15  and  C_20 
REMARK   14  A    between atoms: C_18  and  C_19 
REMARK   15  A    between atoms: C_18  and  C_21 
ROOT
HETATM    1  O   UNL     1      37.535 -15.386 -17.283  1.00  0.00    -0.776 OA
HETATM    2  H   UNL     1      37.054 -15.314 -18.120  1.00  0.00     0.167 HD
ENDROOT
BRANCH   1   3
HETATM    3  C   UNL     1      37.049 -14.849 -16.144  1.00  0.00     0.139 C 
HETATM    4  O   UNL     1      36.012 -14.201 -16.166  1.00  0.00    -0.650 OA
BRANCH   3   5
HETATM    5  C   UNL     1      37.792 -15.041 -14.851  1.00  0.00     0.110 C 
BRANCH   5   6
HETATM    6  C   UNL     1      36.922 -15.699 -13.770  1.00  0.00     0.014 C 
BRANCH   6   7
HETATM    7  C   UNL     1      36.918 -14.911 -12.454  1.00  0.00     0.027 C 
BRANCH   7   8
HETATM    8  C   UNL     1      36.913 -15.869 -11.288  1.00  0.00    -0.030 C 
HETATM    9  C   UNL     1      36.107 -15.780 -10.214  1.00  0.00    -0.027 C 
BRANCH   9  10
HETATM   10  C   UNL     1      35.052 -14.724  -9.997  1.00  0.00     0.053 C 
BRANCH  10  11
HETATM   11  C   UNL     1      33.896 -15.263  -9.183  1.00  0.00    -0.027 C 
HETATM   12  C   UNL     1      32.579 -15.132  -9.443  1.00  0.00    -0.027 C 
BRANCH  12  13
HETATM   13  C   UNL     1      31.951 -14.430 -10.620  1.00  0.00     0.053 C 
BRANCH  13  14
HETATM   14  C   UNL     1      32.254 -15.185 -11.893  1.00  0.00    -0.027 C 
HETATM   15  C   UNL     1      32.062 -14.708 -13.140  1.00  0.00    -0.027 C 
BRANCH  15  16
HETATM   16  C   UNL     1      31.499 -13.347 -13.456  1.00  0.00     0.053 C 
BRANCH  16  17
HETATM   17  C   UNL     1      32.411 -12.570 -14.372  1.00  0.00    -0.027 C 
HETATM   18  C   UNL     1      32.214 -12.444 -15.696  1.00  0.00    -0.030 C 
BRANCH  18  19
HETATM   19  C   UNL     1      31.070 -13.064 -16.458  1.00  0.00     0.027 C 
BRANCH  19  20
HETATM   20  C   UNL     1      31.441 -13.178 -17.940  1.00  0.00     0.004 C 
BRANCH  20  21
HETATM   21  C   UNL     1      32.944 -13.418 -18.119  1.00  0.00    -0.000 C 
BRANCH  21  22
HETATM   22  C   UNL     1      33.231 -14.114 -19.454  1.00  0.00    -0.005 C 
HETATM   23  C   UNL     1      31.973 -14.770 -20.015  1.00  0.00     0.005 C 
ENDBRANCH  21  22
ENDBRANCH  20  21
ENDBRANCH  19  20
ENDBRANCH  18  19
ENDBRANCH  16  17
ENDBRANCH  15  16
ENDBRANCH  13  14
ENDBRANCH  12  13
ENDBRANCH  10  11
ENDBRANCH   9  10
ENDBRANCH   7   8
ENDBRANCH   6   7
ENDBRANCH   5   6
ENDBRANCH   3   5
ENDBRANCH   1   3
TORSDOF 15
ENDMDL
MODEL 16
REMARK VINA RESULT:      -5.0     49.739     51.610
REMARK  15 active torsions:
REMARK  status: ('A' for Active; 'I' for Inactive)
REMARK    1  A    between atoms: O_1  and  C_22 
REMARK    2  A    between atoms: C_3  and  C_4 
REMARK    3  A    between atoms: C_3  and  C_5 
REMARK    4  A    between atoms: C_4  and  C_6 
REMARK    5  A    between atoms: C_5  and  C_7 
REMARK    6  A    between atoms: C_9  and  C_10 
REMARK    7  A    between atoms: C_9  and  C_13 
REMARK    8  A    between atoms: C_10  and  C_14 
REMARK    9  A    between atoms: C_11  and  C_12 
REMARK   10  A    between atoms: C_12  and  C_16 
REMARK   11  A    between atoms: C_13  and  C_22 
REMARK   12  A    between atoms: C_15  and  C_17 
REMARK   13  A    between atoms: C_15  and  C_20 
REMARK   14  A    between atoms: C_18  and  C_19 
REMARK   15  A    between atoms: C_18  and  C_21 
ROOT
HETATM    1  O   UNL     1      -8.985  16.404 -15.908  1.00  0.00    -0.776 OA
HETATM    2  H   UNL     1      -9.698  16.980 -16.217  1.00  0.00     0.167 HD
ENDROOT
BRANCH   1   3
HETATM    3  C   UNL     1      -7.704  16.829 -15.871  1.00  0.00     0.139 C 
HETATM    4  O   UNL     1      -7.406  17.918 -16.339  1.00  0.00    -0.650 OA
BRANCH   3   5
HETATM    5  C   UNL     1      -6.643  15.953 -15.264  1.00  0.00     0.110 C 
BRANCH   5   6
HETATM    6  C   UNL     1      -6.120  14.899 -16.251  1.00  0.00     0.014 C 
BRANCH   6   7
HETATM    7  C   UNL     1      -4.741  15.255 -16.820  1.00  0.00     0.027 C 
BRANCH   7   8
HETATM    8  C   UNL     1      -4.134  16.377 -16.015  1.00  0.00    -0.030 C 
HETATM    9  C   UNL     1      -3.671  17.535 -16.524  1.00  0.00    -0.027 C 
BRANCH   9  10
HETATM   10  C   UNL     1      -3.701  17.924 -17.980  1.00  0.00     0.053 C 
BRANCH  10  11
HETATM   11  C   UNL     1      -4.802  18.923 -18.259  1.00  0.00    -0.027 C 
HETATM   12  C   UNL     1      -5.217  19.373 -19.461  1.00  0.00    -0.027 C 
BRANCH  12  13
HETATM   13  C   UNL     1      -4.689  18.967 -20.813  1.00  0.00     0.053 C 
BRANCH  13  14
HETATM   14  C   UNL     1      -5.677  19.351 -21.890  1.00  0.00    -0.027 C 
HETATM   15  C   UNL     1      -5.758  18.774 -23.106  1.00  0.00    -0.027 C 
BRANCH  15  16
HETATM   16  C   UNL     1      -4.861  17.663 -23.586  1.00  0.00     0.053 C 
BRANCH  16  17
HETATM   17  C   UNL     1      -5.579  16.337 -23.596  1.00  0.00    -0.027 C 
HETATM   18  C   UNL     1      -5.355  15.356 -22.704  1.00  0.00    -0.030 C 
BRANCH  18  19
HETATM   19  C   UNL     1      -4.353  15.428 -21.580  1.00  0.00     0.027 C 
BRANCH  19  20
HETATM   20  C   UNL     1      -5.084  15.382 -20.235  1.00  0.00     0.004 C 
BRANCH  20  21
HETATM   21  C   UNL     1      -6.598  15.240 -20.431  1.00  0.00    -0.000 C 
BRANCH  21  22
HETATM   22  C   UNL     1      -7.339  16.451 -19.852  1.00  0.00    -0.005 C 
HETATM   23  C   UNL     1      -8.335  17.020 -20.858  1.00  0.00     0.005 C 
ENDBRANCH  21  22
ENDBRANCH  20  21
ENDBRANCH  19  20
ENDBRANCH  18  19
ENDBRANCH  16  17
ENDBRANCH  15  16
ENDBRANCH  13  14
ENDBRANCH  12  13
ENDBRANCH  10  11
ENDBRANCH   9  10
ENDBRANCH   7   8
ENDBRANCH   6   7
ENDBRANCH   5   6
ENDBRANCH   3   5
ENDBRANCH   1   3
TORSDOF 15
ENDMDL
MODEL 17
REMARK VINA RESULT:      -4.9     16.079     18.210
REMARK  15 active torsions:
REMARK  status: ('A' for Active; 'I' for Inactive)
REMARK    1  A    between atoms: O_1  and  C_22 
REMARK    2  A    between atoms: C_3  and  C_4 
REMARK    3  A    between atoms: C_3  and  C_5 
REMARK    4  A    between atoms: C_4  and  C_6 
REMARK    5  A    between atoms: C_5  and  C_7 
REMARK    6  A    between atoms: C_9  and  C_10 
REMARK    7  A    between atoms: C_9  and  C_13 
REMARK    8  A    between atoms: C_10  and  C_14 
REMARK    9  A    between atoms: C_11  and  C_12 
REMARK   10  A    between atoms: C_12  and  C_16 
REMARK   11  A    between atoms: C_13  and  C_22 
REMARK   12  A    between atoms: C_15  and  C_17 
REMARK   13  A    between atoms: C_15  and  C_20 
REMARK   14  A    between atoms: C_18  and  C_19 
REMARK   15  A    between atoms: C_18  and  C_21 
ROOT
HETATM    1  O   UNL     1      52.023  -7.904  -5.886  1.00  0.00    -0.776 OA
HETATM    2  H   UNL     1      51.996  -8.590  -5.204  1.00  0.00     0.167 HD
ENDROOT
BRANCH   1   3
HETATM    3  C   UNL     1      50.932  -7.166  -6.184  1.00  0.00     0.139 C 
HETATM    4  O   UNL     1      50.913  -5.971  -5.930  1.00  0.00    -0.650 OA
BRANCH   3   5
HETATM    5  C   UNL     1      49.737  -7.822  -6.819  1.00  0.00     0.110 C 
BRANCH   5   6
HETATM    6  C   UNL     1      49.882  -9.348  -6.900  1.00  0.00     0.014 C 
BRANCH   6   7
HETATM    7  C   UNL     1      48.745 -10.090  -6.186  1.00  0.00     0.027 C 
BRANCH   7   8
HETATM    8  C   UNL     1      48.513 -11.424  -6.849  1.00  0.00    -0.030 C 
HETATM    9  C   UNL     1      47.889 -11.607  -8.028  1.00  0.00    -0.027 C 
BRANCH   9  10
HETATM   10  C   UNL     1      47.335 -10.512  -8.903  1.00  0.00     0.053 C 
BRANCH  10  11
HETATM   11  C   UNL     1      48.158 -10.346 -10.162  1.00  0.00    -0.027 C 
HETATM   12  C   UNL     1      48.558  -9.192 -10.734  1.00  0.00    -0.027 C 
BRANCH  12  13
HETATM   13  C   UNL     1      48.292  -7.793 -10.238  1.00  0.00     0.053 C 
BRANCH  13  14
HETATM   14  C   UNL     1      47.234  -7.135 -11.092  1.00  0.00    -0.027 C 
HETATM   15  C   UNL     1      45.957  -6.921 -10.713  1.00  0.00    -0.027 C 
BRANCH  15  16
HETATM   16  C   UNL     1      45.384  -7.323  -9.379  1.00  0.00     0.053 C 
BRANCH  16  17
HETATM   17  C   UNL     1      45.598  -6.251  -8.340  1.00  0.00    -0.027 C 
HETATM   18  C   UNL     1      45.932  -6.502  -7.062  1.00  0.00    -0.030 C 
BRANCH  18  19
HETATM   19  C   UNL     1      46.129  -7.879  -6.479  1.00  0.00     0.027 C 
BRANCH  19  20
HETATM   20  C   UNL     1      45.861  -7.843  -4.971  1.00  0.00     0.004 C 
BRANCH  20  21
HETATM   21  C   UNL     1      46.884  -6.961  -4.247  1.00  0.00    -0.000 C 
BRANCH  21  22
HETATM   22  C   UNL     1      46.200  -6.081  -3.195  1.00  0.00    -0.005 C 
HETATM   23  C   UNL     1      44.926  -5.450  -3.748  1.00  0.00     0.005 C 
ENDBRANCH  21  22
ENDBRANCH  20  21
ENDBRANCH  19  20
ENDBRANCH  18  19
ENDBRANCH  16  17
ENDBRANCH  15  16
ENDBRANCH  13  14
ENDBRANCH  12  13
ENDBRANCH  10  11
ENDBRANCH   9  10
ENDBRANCH   7   8
ENDBRANCH   6   7
ENDBRANCH   5   6
ENDBRANCH   3   5
ENDBRANCH   1   3
TORSDOF 15
ENDMDL
MODEL 18
REMARK VINA RESULT:      -4.9      2.181      3.185
REMARK  15 active torsions:
REMARK  status: ('A' for Active; 'I' for Inactive)
REMARK    1  A    between atoms: O_1  and  C_22 
REMARK    2  A    between atoms: C_3  and  C_4 
REMARK    3  A    between atoms: C_3  and  C_5 
REMARK    4  A    between atoms: C_4  and  C_6 
REMARK    5  A    between atoms: C_5  and  C_7 
REMARK    6  A    between atoms: C_9  and  C_10 
REMARK    7  A    between atoms: C_9  and  C_13 
REMARK    8  A    between atoms: C_10  and  C_14 
REMARK    9  A    between atoms: C_11  and  C_12 
REMARK   10  A    between atoms: C_12  and  C_16 
REMARK   11  A    between atoms: C_13  and  C_22 
REMARK   12  A    between atoms: C_15  and  C_17 
REMARK   13  A    between atoms: C_15  and  C_20 
REMARK   14  A    between atoms: C_18  and  C_19 
REMARK   15  A    between atoms: C_18  and  C_21 
ROOT
HETATM    1  O   UNL     1      30.786 -14.324 -21.680  1.00  0.00    -0.776 OA
HETATM    2  H   UNL     1      29.910 -14.721 -21.575  1.00  0.00     0.167 HD
ENDROOT
BRANCH   1   3
HETATM    3  C   UNL     1      31.099 -13.147 -21.100  1.00  0.00     0.139 C 
HETATM    4  O   UNL     1      30.212 -12.385 -20.742  1.00  0.00    -0.650 OA
BRANCH   3   5
HETATM    5  C   UNL     1      32.542 -12.769 -20.905  1.00  0.00     0.110 C 
BRANCH   5   6
HETATM    6  C   UNL     1      33.486 -13.968 -21.072  1.00  0.00     0.014 C 
BRANCH   6   7
HETATM    7  C   UNL     1      34.079 -14.444 -19.739  1.00  0.00     0.027 C 
BRANCH   7   8
HETATM    8  C   UNL     1      33.135 -15.418 -19.082  1.00  0.00    -0.030 C 
HETATM    9  C   UNL     1      33.183 -15.795 -17.790  1.00  0.00    -0.027 C 
BRANCH   9  10
HETATM   10  C   UNL     1      34.172 -15.293 -16.769  1.00  0.00     0.053 C 
BRANCH  10  11
HETATM   11  C   UNL     1      35.534 -15.919 -16.971  1.00  0.00    -0.027 C 
HETATM   12  C   UNL     1      36.626 -15.778 -16.192  1.00  0.00    -0.027 C 
BRANCH  12  13
HETATM   13  C   UNL     1      36.735 -14.975 -14.920  1.00  0.00     0.053 C 
BRANCH  13  14
HETATM   14  C   UNL     1      36.842 -15.901 -13.732  1.00  0.00    -0.027 C 
HETATM   15  C   UNL     1      36.376 -15.629 -12.495  1.00  0.00    -0.027 C 
BRANCH  15  16
HETATM   16  C   UNL     1      35.689 -14.347 -12.104  1.00  0.00     0.053 C 
BRANCH  16  17
HETATM   17  C   UNL     1      34.379 -14.612 -11.406  1.00  0.00    -0.027 C 
HETATM   18  C   UNL     1      33.236 -13.962 -11.685  1.00  0.00    -0.030 C 
BRANCH  18  19
HETATM   19  C   UNL     1      33.096 -12.873 -12.719  1.00  0.00     0.027 C 
BRANCH  19  20
HETATM   20  C   UNL     1      32.065 -13.293 -13.772  1.00  0.00     0.004 C 
BRANCH  20  21
HETATM   21  C   UNL     1      32.193 -12.446 -15.042  1.00  0.00    -0.000 C 
BRANCH  21  22
HETATM   22  C   UNL     1      31.034 -12.726 -16.005  1.00  0.00    -0.005 C 
HETATM   23  C   UNL     1      31.502 -12.690 -17.457  1.00  0.00     0.005 C 
ENDBRANCH  21  22
ENDBRANCH  20  21
ENDBRANCH  19  20
ENDBRANCH  18  19
ENDBRANCH  16  17
ENDBRANCH  15  16
ENDBRANCH  13  14
ENDBRANCH  12  13
ENDBRANCH  10  11
ENDBRANCH   9  10
ENDBRANCH   7   8
ENDBRANCH   6   7
ENDBRANCH   5   6
ENDBRANCH   3   5
ENDBRANCH   1   3
TORSDOF 15
ENDMDL
MODEL 19
REMARK VINA RESULT:      -4.9      6.930     10.205
REMARK  15 active torsions:
REMARK  status: ('A' for Active; 'I' for Inactive)
REMARK    1  A    between atoms: O_1  and  C_22 
REMARK    2  A    between atoms: C_3  and  C_4 
REMARK    3  A    between atoms: C_3  and  C_5 
REMARK    4  A    between atoms: C_4  and  C_6 
REMARK    5  A    between atoms: C_5  and  C_7 
REMARK    6  A    between atoms: C_9  and  C_10 
REMARK    7  A    between atoms: C_9  and  C_13 
REMARK    8  A    between atoms: C_10  and  C_14 
REMARK    9  A    between atoms: C_11  and  C_12 
REMARK   10  A    between atoms: C_12  and  C_16 
REMARK   11  A    between atoms: C_13  and  C_22 
REMARK   12  A    between atoms: C_15  and  C_17 
REMARK   13  A    between atoms: C_15  and  C_20 
REMARK   14  A    between atoms: C_18  and  C_19 
REMARK   15  A    between atoms: C_18  and  C_21 
ROOT
HETATM    1  O   UNL     1      37.408 -14.032  -6.505  1.00  0.00    -0.776 OA
HETATM    2  H   UNL     1      37.992 -14.109  -5.738  1.00  0.00     0.167 HD
ENDROOT
BRANCH   1   3
HETATM    3  C   UNL     1      36.756 -15.104  -7.003  1.00  0.00     0.139 C 
HETATM    4  O   UNL     1      37.272 -15.782  -7.880  1.00  0.00    -0.650 OA
BRANCH   3   5
HETATM    5  C   UNL     1      35.389 -15.455  -6.484  1.00  0.00     0.110 C 
BRANCH   5   6
HETATM    6  C   UNL     1      35.111 -14.837  -5.106  1.00  0.00     0.014 C 
BRANCH   6   7
HETATM    7  C   UNL     1      33.650 -15.001  -4.668  1.00  0.00     0.027 C 
BRANCH   7   8
HETATM    8  C   UNL     1      33.231 -13.812  -3.841  1.00  0.00    -0.030 C 
HETATM    9  C   UNL     1      32.855 -12.617  -4.334  1.00  0.00    -0.027 C 
BRANCH   9  10
HETATM   10  C   UNL     1      32.765 -12.264  -5.798  1.00  0.00     0.053 C 
BRANCH  10  11
HETATM   11  C   UNL     1      31.393 -12.579  -6.353  1.00  0.00    -0.027 C 
HETATM   12  C   UNL     1      31.017 -13.679  -7.036  1.00  0.00    -0.027 C 
BRANCH  12  13
HETATM   13  C   UNL     1      31.877 -14.866  -7.389  1.00  0.00     0.053 C 
BRANCH  13  14
HETATM   14  C   UNL     1      31.500 -15.390  -8.754  1.00  0.00    -0.027 C 
HETATM   15  C   UNL     1      32.001 -14.937  -9.922  1.00  0.00    -0.027 C 
BRANCH  15  16
HETATM   16  C   UNL     1      33.006 -13.822 -10.044  1.00  0.00     0.053 C 
BRANCH  16  17
HETATM   17  C   UNL     1      32.340 -12.513 -10.389  1.00  0.00    -0.027 C 
HETATM   18  C   UNL     1      32.451 -11.906 -11.584  1.00  0.00    -0.030 C 
BRANCH  18  19
HETATM   19  C   UNL     1      33.261 -12.432 -12.742  1.00  0.00     0.027 C 
BRANCH  19  20
HETATM   20  C   UNL     1      32.345 -12.654 -13.951  1.00  0.00     0.004 C 
BRANCH  20  21
HETATM   21  C   UNL     1      31.881 -14.112 -14.033  1.00  0.00    -0.000 C 
BRANCH  21  22
HETATM   22  C   UNL     1      31.102 -14.365 -15.330  1.00  0.00    -0.005 C 
HETATM   23  C   UNL     1      31.190 -13.165 -16.268  1.00  0.00     0.005 C 
ENDBRANCH  21  22
ENDBRANCH  20  21
ENDBRANCH  19  20
ENDBRANCH  18  19
ENDBRANCH  16  17
ENDBRANCH  15  16
ENDBRANCH  13  14
ENDBRANCH  12  13
ENDBRANCH  10  11
ENDBRANCH   9  10
ENDBRANCH   7   8
ENDBRANCH   6   7
ENDBRANCH   5   6
ENDBRANCH   3   5
ENDBRANCH   1   3
TORSDOF 15
ENDMDL
MODEL 20
REMARK VINA RESULT:      -4.8     13.191     14.555
REMARK  15 active torsions:
REMARK  status: ('A' for Active; 'I' for Inactive)
REMARK    1  A    between atoms: O_1  and  C_22 
REMARK    2  A    between atoms: C_3  and  C_4 
REMARK    3  A    between atoms: C_3  and  C_5 
REMARK    4  A    between atoms: C_4  and  C_6 
REMARK    5  A    between atoms: C_5  and  C_7 
REMARK    6  A    between atoms: C_9  and  C_10 
REMARK    7  A    between atoms: C_9  and  C_13 
REMARK    8  A    between atoms: C_10  and  C_14 
REMARK    9  A    between atoms: C_11  and  C_12 
REMARK   10  A    between atoms: C_12  and  C_16 
REMARK   11  A    between atoms: C_13  and  C_22 
REMARK   12  A    between atoms: C_15  and  C_17 
REMARK   13  A    between atoms: C_15  and  C_20 
REMARK   14  A    between atoms: C_18  and  C_19 
REMARK   15  A    between atoms: C_18  and  C_21 
ROOT
HETATM    1  O   UNL     1      47.836  -5.760 -17.741  1.00  0.00    -0.776 OA
HETATM    2  H   UNL     1      48.567  -5.936 -17.132  1.00  0.00     0.167 HD
ENDROOT
BRANCH   1   3
HETATM    3  C   UNL     1      46.722  -6.523 -17.740  1.00  0.00     0.139 C 
HETATM    4  O   UNL     1      46.740  -7.634 -17.232  1.00  0.00    -0.650 OA
BRANCH   3   5
HETATM    5  C   UNL     1      45.461  -6.005 -18.377  1.00  0.00     0.110 C 
BRANCH   5   6
HETATM    6  C   UNL     1      45.420  -6.269 -19.889  1.00  0.00     0.014 C 
BRANCH   6   7
HETATM    7  C   UNL     1      46.590  -7.137 -20.370  1.00  0.00     0.027 C 
BRANCH   7   8
HETATM    8  C   UNL     1      46.569  -7.229 -21.875  1.00  0.00    -0.030 C 
HETATM    9  C   UNL     1      46.492  -8.372 -22.582  1.00  0.00    -0.027 C 
BRANCH   9  10
HETATM   10  C   UNL     1      46.388  -9.758 -21.996  1.00  0.00     0.053 C 
BRANCH  10  11
HETATM   11  C   UNL     1      47.753 -10.393 -21.847  1.00  0.00    -0.027 C 
HETATM   12  C   UNL     1      48.381 -10.728 -20.701  1.00  0.00    -0.027 C 
BRANCH  12  13
HETATM   13  C   UNL     1      47.857 -10.564 -19.297  1.00  0.00     0.053 C 
BRANCH  13  14
HETATM   14  C   UNL     1      48.309 -11.721 -18.438  1.00  0.00    -0.027 C 
HETATM   15  C   UNL     1      48.304 -11.731 -17.089  1.00  0.00    -0.027 C 
BRANCH  15  16
HETATM   16  C   UNL     1      47.861 -10.577 -16.228  1.00  0.00     0.053 C 
BRANCH  16  17
HETATM   17  C   UNL     1      48.308 -10.751 -14.798  1.00  0.00    -0.027 C 
HETATM   18  C   UNL     1      47.612 -10.311 -13.736  1.00  0.00    -0.030 C 
BRANCH  18  19
HETATM   19  C   UNL     1      46.299  -9.573 -13.815  1.00  0.00     0.027 C 
BRANCH  19  20
HETATM   20  C   UNL     1      46.277  -8.449 -12.774  1.00  0.00     0.004 C 
BRANCH  20  21
HETATM   21  C   UNL     1      46.651  -7.103 -13.403  1.00  0.00    -0.000 C 
BRANCH  21  22
HETATM   22  C   UNL     1      45.481  -6.536 -14.217  1.00  0.00    -0.005 C 
HETATM   23  C   UNL     1      44.863  -5.326 -13.524  1.00  0.00     0.005 C 
ENDBRANCH  21  22
ENDBRANCH  20  21
ENDBRANCH  19  20
ENDBRANCH  18  19
ENDBRANCH  16  17
ENDBRANCH  15  16
ENDBRANCH  13  14
ENDBRANCH  12  13
ENDBRANCH  10  11
ENDBRANCH   9  10
ENDBRANCH   7   8
ENDBRANCH   6   7
ENDBRANCH   5   6
ENDBRANCH   3   5
ENDBRANCH   1   3
TORSDOF 15
ENDMDL
