MODEL 1
REMARK VINA RESULT:     -11.2      0.000      0.000
REMARK  5 active torsions:
REMARK  status: ('A' for Active; 'I' for Inactive)
REMARK    1  A    between atoms: S_3  and  O_4 
REMARK    2  A    between atoms: S_3  and  C_15 
REMARK    3  A    between atoms: N_9  and  C_30 
REMARK    4  A    between atoms: C_11  and  C_13 
REMARK    5  A    between atoms: C_18  and  C_25 
ROOT
HETATM    1  S   UNL     1      34.154 -14.951 -18.780  1.00  0.00    -0.068 SA
HETATM    2  N   UNL     1      36.627 -15.221 -18.351  1.00  0.00    -0.344 N 
HETATM    3  C   UNL     1      36.431 -15.312 -19.708  1.00  0.00     0.053 A 
HETATM    4  C   UNL     1      35.440 -15.045 -17.680  1.00  0.00     0.087 A 
HETATM    5  C   UNL     1      35.114 -15.184 -20.130  1.00  0.00     0.057 A 
HETATM    6  C   UNL     1      34.737 -15.245 -21.480  1.00  0.00     0.097 A 
HETATM    7  C   UNL     1      35.760 -15.445 -22.442  1.00  0.00    -0.037 A 
HETATM    8  C   UNL     1      37.441 -15.503 -20.663  1.00  0.00     0.031 A 
HETATM    9  C   UNL     1      37.978 -15.248 -17.772  1.00  0.00     0.157 C 
HETATM   10  C   UNL     1      37.101 -15.571 -22.019  1.00  0.00     0.011 A 
HETATM   11  C   UNL     1      35.450 -15.526 -23.913  1.00  0.00     0.050 C 
ENDROOT
BRANCH   4  12
HETATM   12  C   UNL     1      35.204 -14.976 -16.203  1.00  0.00    -0.001 A 
HETATM   13  C   UNL     1      36.213 -15.258 -15.253  1.00  0.00     0.035 A 
HETATM   14  C   UNL     1      35.901 -15.196 -13.898  1.00  0.00     0.034 A 
HETATM   15  S   UNL     1      36.910 -15.472 -12.599  1.00  0.00    -0.069 SA
HETATM   16  C   UNL     1      34.639 -14.878 -13.431  1.00  0.00     0.052 A 
HETATM   17  C   UNL     1      35.695 -15.196 -11.445  1.00  0.00     0.087 A 
HETATM   18  N   UNL     1      34.513 -14.855 -12.065  1.00  0.00    -0.344 N 
HETATM   19  C   UNL     1      33.255 -14.449 -11.422  1.00  0.00     0.157 C 
HETATM   20  C   UNL     1      33.620 -14.606 -14.355  1.00  0.00     0.032 A 
HETATM   21  C   UNL     1      33.904 -14.668 -15.729  1.00  0.00     0.016 A 
BRANCH  17  22
HETATM   22  C   UNL     1      35.963 -15.365  -9.981  1.00  0.00    -0.002 A 
HETATM   23  C   UNL     1      34.965 -15.714  -9.054  1.00  0.00     0.016 A 
HETATM   24  C   UNL     1      35.264 -15.884  -7.700  1.00  0.00     0.030 A 
HETATM   25  C   UNL     1      36.580 -15.722  -7.215  1.00  0.00     0.029 A 
HETATM   26  C   UNL     1      37.583 -15.395  -8.152  1.00  0.00     0.030 A 
HETATM   27  C   UNL     1      37.280 -15.228  -9.506  1.00  0.00     0.016 A 
BRANCH  25  28
HETATM   28  N   UNL     1      36.891 -15.899  -5.816  1.00  0.00    -0.390 N 
HETATM   29  C   UNL     1      36.213 -15.104  -4.799  1.00  0.00     0.149 C 
HETATM   30  C   UNL     1      37.889 -16.873  -5.394  1.00  0.00     0.149 C 
ENDBRANCH  25  28
ENDBRANCH  17  22
ENDBRANCH   4  12
BRANCH   6  31
HETATM   31  S   UNL     1      33.001 -15.073 -21.956  1.00  0.00     0.131 S 
HETATM   32  O   UNL     1      32.721 -13.759 -22.704  1.00  0.00    -0.598 OA
HETATM   33  O   UNL     1      32.607 -16.106 -23.022  1.00  0.00    -0.598 OA
BRANCH  31  34
HETATM   34  O   UNL     1      31.759 -15.190 -20.774  1.00  0.00    -0.292 OA
HETATM   35  H   UNL     1      32.217 -15.058 -19.905  1.00  0.00     0.232 HD
ENDBRANCH  31  34
ENDBRANCH   6  31
TORSDOF 5
ENDMDL
MODEL 2
REMARK VINA RESULT:     -11.1      4.741     11.881
REMARK  5 active torsions:
REMARK  status: ('A' for Active; 'I' for Inactive)
REMARK    1  A    between atoms: S_3  and  O_4 
REMARK    2  A    between atoms: S_3  and  C_15 
REMARK    3  A    between atoms: N_9  and  C_30 
REMARK    4  A    between atoms: C_11  and  C_13 
REMARK    5  A    between atoms: C_18  and  C_25 
ROOT
HETATM    1  S   UNL     1      35.030 -14.790 -12.384  1.00  0.00    -0.068 SA
HETATM    2  N   UNL     1      32.818 -14.738 -13.599  1.00  0.00    -0.344 N 
HETATM    3  C   UNL     1      32.548 -14.752 -12.251  1.00  0.00     0.053 A 
HETATM    4  C   UNL     1      34.170 -14.786 -13.844  1.00  0.00     0.087 A 
HETATM    5  C   UNL     1      33.662 -14.780 -11.422  1.00  0.00     0.057 A 
HETATM    6  C   UNL     1      33.569 -14.789 -10.022  1.00  0.00     0.097 A 
HETATM    7  C   UNL     1      32.272 -14.768  -9.447  1.00  0.00    -0.037 A 
HETATM    8  C   UNL     1      31.267 -14.724 -11.679  1.00  0.00     0.031 A 
HETATM    9  C   UNL     1      31.740 -14.619 -14.591  1.00  0.00     0.157 C 
HETATM   10  C   UNL     1      31.136 -14.734 -10.286  1.00  0.00     0.011 A 
HETATM   11  C   UNL     1      32.074 -14.779  -7.954  1.00  0.00     0.050 C 
ENDROOT
BRANCH   4  12
HETATM   12  C   UNL     1      34.877 -14.865 -15.162  1.00  0.00    -0.001 A 
HETATM   13  C   UNL     1      34.198 -14.802 -16.400  1.00  0.00     0.035 A 
HETATM   14  C   UNL     1      34.930 -14.909 -17.579  1.00  0.00     0.034 A 
HETATM   15  S   UNL     1      34.364 -14.854 -19.147  1.00  0.00    -0.069 SA
HETATM   16  C   UNL     1      36.301 -15.086 -17.598  1.00  0.00     0.052 A 
HETATM   17  C   UNL     1      35.901 -15.081 -19.834  1.00  0.00     0.087 A 
HETATM   18  N   UNL     1      36.860 -15.165 -18.849  1.00  0.00    -0.344 N 
HETATM   19  C   UNL     1      38.315 -15.264 -19.029  1.00  0.00     0.157 C 
HETATM   20  C   UNL     1      36.995 -15.164 -16.382  1.00  0.00     0.032 A 
HETATM   21  C   UNL     1      36.281 -15.065 -15.177  1.00  0.00     0.016 A 
BRANCH  17  22
HETATM   22  C   UNL     1      36.078 -15.199 -21.316  1.00  0.00    -0.002 A 
HETATM   23  C   UNL     1      37.338 -15.205 -21.941  1.00  0.00     0.016 A 
HETATM   24  C   UNL     1      37.457 -15.342 -23.326  1.00  0.00     0.030 A 
HETATM   25  C   UNL     1      36.318 -15.489 -24.148  1.00  0.00     0.029 A 
HETATM   26  C   UNL     1      35.057 -15.505 -23.516  1.00  0.00     0.030 A 
HETATM   27  C   UNL     1      34.943 -15.371 -22.130  1.00  0.00     0.016 A 
BRANCH  25  28
HETATM   28  N   UNL     1      36.441 -15.630 -25.580  1.00  0.00    -0.390 N 
HETATM   29  C   UNL     1      37.740 -15.875 -26.194  1.00  0.00     0.149 C 
HETATM   30  C   UNL     1      35.268 -15.529 -26.439  1.00  0.00     0.149 C 
ENDBRANCH  25  28
ENDBRANCH  17  22
ENDBRANCH   4  12
BRANCH   6  31
HETATM   31  S   UNL     1      35.063 -14.829  -9.003  1.00  0.00     0.131 S 
HETATM   32  O   UNL     1      35.244 -16.169  -8.272  1.00  0.00    -0.598 OA
HETATM   33  O   UNL     1      36.332 -14.792  -9.868  1.00  0.00    -0.598 OA
BRANCH  31  34
HETATM   34  O   UNL     1      35.332 -13.624  -7.808  1.00  0.00    -0.292 OA
HETATM   35  H   UNL     1      34.461 -13.522  -7.345  1.00  0.00     0.232 HD
ENDBRANCH  31  34
ENDBRANCH   6  31
TORSDOF 5
ENDMDL
MODEL 3
REMARK VINA RESULT:     -11.0      4.116     11.597
REMARK  5 active torsions:
REMARK  status: ('A' for Active; 'I' for Inactive)
REMARK    1  A    between atoms: S_3  and  O_4 
REMARK    2  A    between atoms: S_3  and  C_15 
REMARK    3  A    between atoms: N_9  and  C_30 
REMARK    4  A    between atoms: C_11  and  C_13 
REMARK    5  A    between atoms: C_18  and  C_25 
ROOT
HETATM    1  S   UNL     1      34.186 -15.204 -12.315  1.00  0.00    -0.068 SA
HETATM    2  N   UNL     1      36.666 -15.178 -12.786  1.00  0.00    -0.344 N 
HETATM    3  C   UNL     1      36.505 -15.131 -11.422  1.00  0.00     0.053 A 
HETATM    4  C   UNL     1      35.456 -15.194 -13.438  1.00  0.00     0.087 A 
HETATM    5  C   UNL     1      35.188 -15.138 -10.978  1.00  0.00     0.057 A 
HETATM    6  C   UNL     1      34.843 -15.103  -9.619  1.00  0.00     0.097 A 
HETATM    7  C   UNL     1      35.898 -15.058  -8.671  1.00  0.00    -0.037 A 
HETATM    8  C   UNL     1      37.545 -15.094 -10.482  1.00  0.00     0.031 A 
HETATM    9  C   UNL     1      38.002 -15.266 -13.393  1.00  0.00     0.157 C 
HETATM   10  C   UNL     1      37.238 -15.055  -9.117  1.00  0.00     0.011 A 
HETATM   11  C   UNL     1      35.623 -15.015  -7.191  1.00  0.00     0.050 C 
ENDROOT
BRANCH   4  12
HETATM   12  C   UNL     1      35.189 -15.167 -14.911  1.00  0.00    -0.001 A 
HETATM   13  C   UNL     1      36.204 -15.356 -15.877  1.00  0.00     0.035 A 
HETATM   14  C   UNL     1      35.874 -15.289 -17.227  1.00  0.00     0.034 A 
HETATM   15  S   UNL     1      36.882 -15.487 -18.541  1.00  0.00    -0.069 SA
HETATM   16  C   UNL     1      34.591 -15.035 -17.674  1.00  0.00     0.052 A 
HETATM   17  C   UNL     1      35.647 -15.221 -19.677  1.00  0.00     0.087 A 
HETATM   18  N   UNL     1      34.445 -15.013 -19.039  1.00  0.00    -0.344 N 
HETATM   19  C   UNL     1      33.124 -14.842 -19.661  1.00  0.00     0.157 C 
HETATM   20  C   UNL     1      33.570 -14.832 -16.736  1.00  0.00     0.032 A 
HETATM   21  C   UNL     1      33.875 -14.887 -15.366  1.00  0.00     0.016 A 
BRANCH  17  22
HETATM   22  C   UNL     1      35.938 -15.197 -21.146  1.00  0.00    -0.002 A 
HETATM   23  C   UNL     1      34.973 -14.864 -22.113  1.00  0.00     0.016 A 
HETATM   24  C   UNL     1      35.294 -14.831 -23.473  1.00  0.00     0.030 A 
HETATM   25  C   UNL     1      36.600 -15.121 -23.924  1.00  0.00     0.029 A 
HETATM   26  C   UNL     1      37.570 -15.434 -22.949  1.00  0.00     0.030 A 
HETATM   27  C   UNL     1      37.246 -15.462 -21.590  1.00  0.00     0.016 A 
BRANCH  25  28
HETATM   28  N   UNL     1      36.932 -15.087 -25.329  1.00  0.00    -0.390 N 
HETATM   29  C   UNL     1      35.933 -15.420 -26.337  1.00  0.00     0.149 C 
HETATM   30  C   UNL     1      38.274 -14.722 -25.766  1.00  0.00     0.149 C 
ENDBRANCH  25  28
ENDBRANCH  17  22
ENDBRANCH   4  12
BRANCH   6  31
HETATM   31  S   UNL     1      33.107 -15.113  -9.113  1.00  0.00     0.131 S 
HETATM   32  O   UNL     1      32.806 -16.188  -8.056  1.00  0.00    -0.598 OA
HETATM   33  O   UNL     1      32.740 -13.835  -8.343  1.00  0.00    -0.598 OA
BRANCH  31  34
HETATM   34  O   UNL     1      31.860 -15.273 -10.285  1.00  0.00    -0.292 OA
HETATM   35  H   UNL     1      32.018 -16.154 -10.710  1.00  0.00     0.232 HD
ENDBRANCH  31  34
ENDBRANCH   6  31
TORSDOF 5
ENDMDL
MODEL 4
REMARK VINA RESULT:     -11.0      4.300     11.775
REMARK  5 active torsions:
REMARK  status: ('A' for Active; 'I' for Inactive)
REMARK    1  A    between atoms: S_3  and  O_4 
REMARK    2  A    between atoms: S_3  and  C_15 
REMARK    3  A    between atoms: N_9  and  C_30 
REMARK    4  A    between atoms: C_11  and  C_13 
REMARK    5  A    between atoms: C_18  and  C_25 
ROOT
HETATM    1  S   UNL     1      34.354 -15.049 -13.546  1.00  0.00    -0.068 SA
HETATM    2  N   UNL     1      36.859 -15.126 -13.851  1.00  0.00    -0.344 N 
HETATM    3  C   UNL     1      36.608 -15.098 -12.500  1.00  0.00     0.053 A 
HETATM    4  C   UNL     1      35.695 -15.075 -14.582  1.00  0.00     0.087 A 
HETATM    5  C   UNL     1      35.266 -15.055 -12.144  1.00  0.00     0.057 A 
HETATM    6  C   UNL     1      34.832 -15.029 -10.811  1.00  0.00     0.097 A 
HETATM    7  C   UNL     1      35.821 -15.051  -9.794  1.00  0.00    -0.037 A 
HETATM    8  C   UNL     1      37.584 -15.127 -11.492  1.00  0.00     0.031 A 
HETATM    9  C   UNL     1      38.227 -15.264 -14.370  1.00  0.00     0.157 C 
HETATM   10  C   UNL     1      37.187 -15.101 -10.151  1.00  0.00     0.011 A 
HETATM   11  C   UNL     1      35.450 -15.024  -8.335  1.00  0.00     0.050 C 
ENDROOT
BRANCH   4  12
HETATM   12  C   UNL     1      35.529 -15.007 -16.069  1.00  0.00    -0.001 A 
HETATM   13  C   UNL     1      34.347 -14.538 -16.687  1.00  0.00     0.035 A 
HETATM   14  C   UNL     1      34.267 -14.533 -18.076  1.00  0.00     0.034 A 
HETATM   15  S   UNL     1      32.996 -14.023 -19.028  1.00  0.00    -0.069 SA
HETATM   16  C   UNL     1      35.292 -14.979 -18.889  1.00  0.00     0.052 A 
HETATM   17  C   UNL     1      33.782 -14.403 -20.486  1.00  0.00     0.087 A 
HETATM   18  N   UNL     1      35.044 -14.895 -20.237  1.00  0.00    -0.344 N 
HETATM   19  C   UNL     1      36.073 -15.248 -21.224  1.00  0.00     0.157 C 
HETATM   20  C   UNL     1      36.469 -15.460 -18.299  1.00  0.00     0.032 A 
HETATM   21  C   UNL     1      36.576 -15.483 -16.899  1.00  0.00     0.016 A 
BRANCH  17  22
HETATM   22  C   UNL     1      33.095 -14.229 -21.805  1.00  0.00    -0.002 A 
HETATM   23  C   UNL     1      32.546 -15.301 -22.531  1.00  0.00     0.016 A 
HETATM   24  C   UNL     1      31.892 -15.089 -23.748  1.00  0.00     0.030 A 
HETATM   25  C   UNL     1      31.751 -13.793 -24.287  1.00  0.00     0.029 A 
HETATM   26  C   UNL     1      32.283 -12.718 -23.545  1.00  0.00     0.030 A 
HETATM   27  C   UNL     1      32.933 -12.933 -22.327  1.00  0.00     0.016 A 
BRANCH  25  28
HETATM   28  N   UNL     1      31.075 -13.573 -25.545  1.00  0.00    -0.390 N 
HETATM   29  C   UNL     1      30.878 -12.223 -26.056  1.00  0.00     0.149 C 
HETATM   30  C   UNL     1      30.576 -14.698 -26.326  1.00  0.00     0.149 C 
ENDBRANCH  25  28
ENDBRANCH  17  22
ENDBRANCH   4  12
BRANCH   6  31
HETATM   31  S   UNL     1      33.067 -14.970 -10.421  1.00  0.00     0.131 S 
HETATM   32  O   UNL     1      32.723 -15.719  -9.123  1.00  0.00    -0.598 OA
HETATM   33  O   UNL     1      32.619 -13.544 -10.064  1.00  0.00    -0.598 OA
BRANCH  31  34
HETATM   34  O   UNL     1      31.904 -15.503 -11.569  1.00  0.00    -0.292 OA
HETATM   35  H   UNL     1      32.405 -15.594 -12.420  1.00  0.00     0.232 HD
ENDBRANCH  31  34
ENDBRANCH   6  31
TORSDOF 5
ENDMDL
MODEL 5
REMARK VINA RESULT:     -10.9      2.245      2.913
REMARK  5 active torsions:
REMARK  status: ('A' for Active; 'I' for Inactive)
REMARK    1  A    between atoms: S_3  and  O_4 
REMARK    2  A    between atoms: S_3  and  C_15 
REMARK    3  A    between atoms: N_9  and  C_30 
REMARK    4  A    between atoms: C_11  and  C_13 
REMARK    5  A    between atoms: C_18  and  C_25 
ROOT
HETATM    1  S   UNL     1      34.985 -14.972 -17.576  1.00  0.00    -0.068 SA
HETATM    2  N   UNL     1      32.489 -14.734 -17.284  1.00  0.00    -0.344 N 
HETATM    3  C   UNL     1      32.742 -14.796 -18.633  1.00  0.00     0.053 A 
HETATM    4  C   UNL     1      33.649 -14.790 -16.548  1.00  0.00     0.087 A 
HETATM    5  C   UNL     1      34.079 -14.931 -18.982  1.00  0.00     0.057 A 
HETATM    6  C   UNL     1      34.514 -15.018 -20.313  1.00  0.00     0.097 A 
HETATM    7  C   UNL     1      33.530 -14.966 -21.333  1.00  0.00    -0.037 A 
HETATM    8  C   UNL     1      31.770 -14.753 -19.644  1.00  0.00     0.031 A 
HETATM    9  C   UNL     1      31.114 -14.681 -16.767  1.00  0.00     0.157 C 
HETATM   10  C   UNL     1      32.167 -14.834 -20.983  1.00  0.00     0.011 A 
HETATM   11  C   UNL     1      33.902 -15.049 -22.790  1.00  0.00     0.050 C 
ENDROOT
BRANCH   4  12
HETATM   12  C   UNL     1      33.822 -14.676 -15.065  1.00  0.00    -0.001 A 
HETATM   13  C   UNL     1      34.889 -15.289 -14.369  1.00  0.00     0.035 A 
HETATM   14  C   UNL     1      34.959 -15.155 -12.986  1.00  0.00     0.034 A 
HETATM   15  S   UNL     1      36.116 -15.769 -11.953  1.00  0.00    -0.069 SA
HETATM   16  C   UNL     1      34.022 -14.453 -12.251  1.00  0.00     0.052 A 
HETATM   17  C   UNL     1      35.378 -15.135 -10.561  1.00  0.00     0.087 A 
HETATM   18  N   UNL     1      34.253 -14.417 -10.898  1.00  0.00    -0.344 N 
HETATM   19  C   UNL     1      33.391 -13.637  -9.999  1.00  0.00     0.157 C 
HETATM   20  C   UNL     1      32.948 -13.848 -12.917  1.00  0.00     0.032 A 
HETATM   21  C   UNL     1      32.848 -13.972 -14.313  1.00  0.00     0.016 A 
BRANCH  17  22
HETATM   22  C   UNL     1      35.932 -15.410  -9.197  1.00  0.00    -0.002 A 
HETATM   23  C   UNL     1      35.154 -15.919  -8.141  1.00  0.00     0.016 A 
HETATM   24  C   UNL     1      35.718 -16.183  -6.891  1.00  0.00     0.030 A 
HETATM   25  C   UNL     1      37.090 -15.959  -6.643  1.00  0.00     0.029 A 
HETATM   26  C   UNL     1      37.871 -15.469  -7.711  1.00  0.00     0.030 A 
HETATM   27  C   UNL     1      37.305 -15.209  -8.961  1.00  0.00     0.016 A 
BRANCH  25  28
HETATM   28  N   UNL     1      37.673 -16.232  -5.351  1.00  0.00    -0.390 N 
HETATM   29  C   UNL     1      38.168 -15.145  -4.515  1.00  0.00     0.149 C 
HETATM   30  C   UNL     1      37.779 -17.599  -4.858  1.00  0.00     0.149 C 
ENDBRANCH  25  28
ENDBRANCH  17  22
ENDBRANCH   4  12
BRANCH   6  31
HETATM   31  S   UNL     1      36.274 -15.189 -20.694  1.00  0.00     0.131 S 
HETATM   32  O   UNL     1      37.155 -15.172 -19.435  1.00  0.00    -0.598 OA
HETATM   33  O   UNL     1      36.592 -16.582 -21.257  1.00  0.00    -0.598 OA
BRANCH  31  34
HETATM   34  O   UNL     1      37.035 -14.107 -21.791  1.00  0.00    -0.292 OA
HETATM   35  H   UNL     1      36.775 -13.202 -21.482  1.00  0.00     0.232 HD
ENDBRANCH  31  34
ENDBRANCH   6  31
TORSDOF 5
ENDMDL
MODEL 6
REMARK VINA RESULT:     -10.9      1.674      2.512
REMARK  5 active torsions:
REMARK  status: ('A' for Active; 'I' for Inactive)
REMARK    1  A    between atoms: S_3  and  O_4 
REMARK    2  A    between atoms: S_3  and  C_15 
REMARK    3  A    between atoms: N_9  and  C_30 
REMARK    4  A    between atoms: C_11  and  C_13 
REMARK    5  A    between atoms: C_18  and  C_25 
ROOT
HETATM    1  S   UNL     1      34.316 -14.978 -19.317  1.00  0.00    -0.068 SA
HETATM    2  N   UNL     1      36.828 -15.180 -19.470  1.00  0.00    -0.344 N 
HETATM    3  C   UNL     1      36.337 -15.157 -20.753  1.00  0.00     0.053 A 
HETATM    4  C   UNL     1      35.816 -15.117 -18.540  1.00  0.00     0.087 A 
HETATM    5  C   UNL     1      34.956 -15.047 -20.860  1.00  0.00     0.057 A 
HETATM    6  C   UNL     1      34.289 -15.002 -22.094  1.00  0.00     0.097 A 
HETATM    7  C   UNL     1      35.076 -15.071 -23.272  1.00  0.00    -0.037 A 
HETATM    8  C   UNL     1      37.112 -15.217 -21.921  1.00  0.00     0.031 A 
HETATM    9  C   UNL     1      38.274 -15.202 -19.207  1.00  0.00     0.157 C 
HETATM   10  C   UNL     1      36.481 -15.177 -23.169  1.00  0.00     0.011 A 
HETATM   11  C   UNL     1      34.448 -15.032 -24.640  1.00  0.00     0.050 C 
ENDROOT
BRANCH   4  12
HETATM   12  C   UNL     1      35.914 -15.191 -17.048  1.00  0.00    -0.001 A 
HETATM   13  C   UNL     1      34.787 -15.085 -16.201  1.00  0.00     0.035 A 
HETATM   14  C   UNL     1      34.970 -15.139 -14.822  1.00  0.00     0.034 A 
HETATM   15  S   UNL     1      33.809 -15.048 -13.629  1.00  0.00    -0.069 SA
HETATM   16  C   UNL     1      36.213 -15.282 -14.235  1.00  0.00     0.052 A 
HETATM   17  C   UNL     1      34.933 -15.176 -12.362  1.00  0.00     0.087 A 
HETATM   18  N   UNL     1      36.207 -15.324 -12.863  1.00  0.00    -0.344 N 
HETATM   19  C   UNL     1      37.442 -15.561 -12.102  1.00  0.00     0.157 C 
HETATM   20  C   UNL     1      37.347 -15.377 -15.054  1.00  0.00     0.032 A 
HETATM   21  C   UNL     1      37.193 -15.319 -16.449  1.00  0.00     0.016 A 
BRANCH  17  22
HETATM   22  C   UNL     1      34.501 -15.088 -10.930  1.00  0.00    -0.002 A 
HETATM   23  C   UNL     1      35.408 -15.022  -9.858  1.00  0.00     0.016 A 
HETATM   24  C   UNL     1      34.960 -14.917  -8.538  1.00  0.00     0.030 A 
HETATM   25  C   UNL     1      33.583 -14.864  -8.235  1.00  0.00     0.029 A 
HETATM   26  C   UNL     1      32.676 -14.908  -9.314  1.00  0.00     0.030 A 
HETATM   27  C   UNL     1      33.128 -15.010 -10.632  1.00  0.00     0.016 A 
BRANCH  25  28
HETATM   28  N   UNL     1      33.120 -14.756  -6.871  1.00  0.00    -0.390 N 
HETATM   29  C   UNL     1      34.067 -14.747  -5.763  1.00  0.00     0.149 C 
HETATM   30  C   UNL     1      31.696 -14.654  -6.576  1.00  0.00     0.149 C 
ENDBRANCH  25  28
ENDBRANCH  17  22
ENDBRANCH   4  12
BRANCH   6  31
HETATM   31  S   UNL     1      32.487 -14.861 -22.158  1.00  0.00     0.131 S 
HETATM   32  O   UNL     1      32.020 -13.512 -22.730  1.00  0.00    -0.598 OA
HETATM   33  O   UNL     1      31.885 -15.837 -23.180  1.00  0.00    -0.598 OA
BRANCH  31  34
HETATM   34  O   UNL     1      31.545 -15.099 -20.740  1.00  0.00    -0.292 OA
HETATM   35  H   UNL     1      30.618 -14.872 -21.006  1.00  0.00     0.232 HD
ENDBRANCH  31  34
ENDBRANCH   6  31
TORSDOF 5
ENDMDL
MODEL 7
REMARK VINA RESULT:     -10.9      1.769      2.710
REMARK  5 active torsions:
REMARK  status: ('A' for Active; 'I' for Inactive)
REMARK    1  A    between atoms: S_3  and  O_4 
REMARK    2  A    between atoms: S_3  and  C_15 
REMARK    3  A    between atoms: N_9  and  C_30 
REMARK    4  A    between atoms: C_11  and  C_13 
REMARK    5  A    between atoms: C_18  and  C_25 
ROOT
HETATM    1  S   UNL     1      33.748 -14.909 -17.161  1.00  0.00    -0.068 SA
HETATM    2  N   UNL     1      36.206 -15.217 -17.647  1.00  0.00    -0.344 N 
HETATM    3  C   UNL     1      35.546 -15.203 -18.852  1.00  0.00     0.053 A 
HETATM    4  C   UNL     1      35.334 -15.092 -16.591  1.00  0.00     0.087 A 
HETATM    5  C   UNL     1      34.169 -15.039 -18.775  1.00  0.00     0.057 A 
HETATM    6  C   UNL     1      33.342 -14.994 -19.907  1.00  0.00     0.097 A 
HETATM    7  C   UNL     1      33.958 -15.121 -21.179  1.00  0.00    -0.037 A 
HETATM    8  C   UNL     1      36.152 -15.322 -20.112  1.00  0.00     0.031 A 
HETATM    9  C   UNL     1      37.672 -15.294 -17.582  1.00  0.00     0.157 C 
HETATM   10  C   UNL     1      35.358 -15.283 -21.264  1.00  0.00     0.011 A 
HETATM   11  C   UNL     1      33.151 -15.087 -22.450  1.00  0.00     0.050 C 
ENDROOT
BRANCH   4  12
HETATM   12  C   UNL     1      35.631 -15.137 -15.125  1.00  0.00    -0.001 A 
HETATM   13  C   UNL     1      34.623 -15.054 -14.136  1.00  0.00     0.035 A 
HETATM   14  C   UNL     1      34.990 -15.077 -12.794  1.00  0.00     0.034 A 
HETATM   15  S   UNL     1      33.994 -15.006 -11.458  1.00  0.00    -0.069 SA
HETATM   16  C   UNL     1      36.304 -15.168 -12.376  1.00  0.00     0.052 A 
HETATM   17  C   UNL     1      35.280 -15.073 -10.350  1.00  0.00     0.087 A 
HETATM   18  N   UNL     1      36.481 -15.186 -11.014  1.00  0.00    -0.344 N 
HETATM   19  C   UNL     1      37.813 -15.367 -10.422  1.00  0.00     0.157 C 
HETATM   20  C   UNL     1      37.322 -15.239 -13.337  1.00  0.00     0.032 A 
HETATM   21  C   UNL     1      36.982 -15.211 -14.699  1.00  0.00     0.016 A 
BRANCH  17  22
HETATM   22  C   UNL     1      35.039 -14.975  -8.875  1.00  0.00    -0.002 A 
HETATM   23  C   UNL     1      35.621 -15.852  -7.943  1.00  0.00     0.016 A 
HETATM   24  C   UNL     1      35.387 -15.709  -6.572  1.00  0.00     0.030 A 
HETATM   25  C   UNL     1      34.566 -14.675  -6.074  1.00  0.00     0.029 A 
HETATM   26  C   UNL     1      34.002 -13.784  -7.010  1.00  0.00     0.030 A 
HETATM   27  C   UNL     1      34.241 -13.927  -8.379  1.00  0.00     0.016 A 
BRANCH  25  28
HETATM   28  N   UNL     1      34.324 -14.527  -4.658  1.00  0.00    -0.390 N 
HETATM   29  C   UNL     1      35.203 -15.161  -3.683  1.00  0.00     0.149 C 
HETATM   30  C   UNL     1      33.195 -13.741  -4.176  1.00  0.00     0.149 C 
ENDBRANCH  25  28
ENDBRANCH  17  22
ENDBRANCH   4  12
BRANCH   6  31
HETATM   31  S   UNL     1      31.555 -14.780 -19.731  1.00  0.00     0.131 S 
HETATM   32  O   UNL     1      30.984 -15.551 -18.530  1.00  0.00    -0.598 OA
HETATM   33  O   UNL     1      31.198 -13.336 -19.349  1.00  0.00    -0.598 OA
BRANCH  31  34
HETATM   34  O   UNL     1      30.502 -15.143 -21.040  1.00  0.00    -0.292 OA
HETATM   35  H   UNL     1      30.603 -14.384 -21.670  1.00  0.00     0.232 HD
ENDBRANCH  31  34
ENDBRANCH   6  31
TORSDOF 5
ENDMDL
MODEL 8
REMARK VINA RESULT:     -10.8     26.334     28.883
REMARK  5 active torsions:
REMARK  status: ('A' for Active; 'I' for Inactive)
REMARK    1  A    between atoms: S_3  and  O_4 
REMARK    2  A    between atoms: S_3  and  C_15 
REMARK    3  A    between atoms: N_9  and  C_30 
REMARK    4  A    between atoms: C_11  and  C_13 
REMARK    5  A    between atoms: C_18  and  C_25 
ROOT
HETATM    1  S   UNL     1      28.170   9.596  -8.263  1.00  0.00    -0.068 SA
HETATM    2  N   UNL     1      25.698   9.445  -8.754  1.00  0.00    -0.344 N 
HETATM    3  C   UNL     1      25.852   9.391  -7.389  1.00  0.00     0.053 A 
HETATM    4  C   UNL     1      26.911   9.531  -9.396  1.00  0.00     0.087 A 
HETATM    5  C   UNL     1      27.163   9.463  -6.934  1.00  0.00     0.057 A 
HETATM    6  C   UNL     1      27.500   9.430  -5.573  1.00  0.00     0.097 A 
HETATM    7  C   UNL     1      26.442   9.320  -4.634  1.00  0.00    -0.037 A 
HETATM    8  C   UNL     1      24.808   9.289  -6.458  1.00  0.00     0.031 A 
HETATM    9  C   UNL     1      24.364   9.469  -9.370  1.00  0.00     0.157 C 
HETATM   10  C   UNL     1      25.107   9.252  -5.091  1.00  0.00     0.011 A 
HETATM   11  C   UNL     1      26.708   9.275  -3.153  1.00  0.00     0.050 C 
ENDROOT
BRANCH   4  12
HETATM   12  C   UNL     1      27.190   9.535 -10.867  1.00  0.00    -0.001 A 
HETATM   13  C   UNL     1      26.164   9.543 -11.841  1.00  0.00     0.035 A 
HETATM   14  C   UNL     1      26.512   9.519 -13.188  1.00  0.00     0.034 A 
HETATM   15  S   UNL     1      25.495   9.533 -14.510  1.00  0.00    -0.069 SA
HETATM   16  C   UNL     1      27.822   9.477 -13.625  1.00  0.00     0.052 A 
HETATM   17  C   UNL     1      26.765   9.465 -15.636  1.00  0.00     0.087 A 
HETATM   18  N   UNL     1      27.981   9.466 -14.989  1.00  0.00    -0.344 N 
HETATM   19  C   UNL     1      29.316   9.512 -15.602  1.00  0.00     0.157 C 
HETATM   20  C   UNL     1      28.856   9.457 -12.679  1.00  0.00     0.032 A 
HETATM   21  C   UNL     1      28.535   9.473 -11.311  1.00  0.00     0.016 A 
BRANCH  17  22
HETATM   22  C   UNL     1      26.494   9.379 -17.106  1.00  0.00    -0.002 A 
HETATM   23  C   UNL     1      25.201   9.230 -17.640  1.00  0.00     0.016 A 
HETATM   24  C   UNL     1      24.991   9.178 -19.020  1.00  0.00     0.030 A 
HETATM   25  C   UNL     1      26.067   9.281 -19.929  1.00  0.00     0.029 A 
HETATM   26  C   UNL     1      27.359   9.452 -19.391  1.00  0.00     0.030 A 
HETATM   27  C   UNL     1      27.565   9.508 -18.010  1.00  0.00     0.016 A 
BRANCH  25  28
HETATM   28  N   UNL     1      25.850   9.227 -21.356  1.00  0.00    -0.390 N 
HETATM   29  C   UNL     1      24.500   9.247 -21.904  1.00  0.00     0.149 C 
HETATM   30  C   UNL     1      26.978   9.150 -22.276  1.00  0.00     0.149 C 
ENDBRANCH  25  28
ENDBRANCH  17  22
ENDBRANCH   4  12
BRANCH   6  31
HETATM   31  S   UNL     1      29.229   9.526  -5.053  1.00  0.00     0.131 S 
HETATM   32  O   UNL     1      30.184   8.849  -6.050  1.00  0.00    -0.598 OA
HETATM   33  O   UNL     1      29.746  10.972  -5.088  1.00  0.00    -0.598 OA
BRANCH  31  34
HETATM   34  O   UNL     1      29.706   8.944  -3.508  1.00  0.00    -0.292 OA
HETATM   35  H   UNL     1      30.308   9.643  -3.144  1.00  0.00     0.232 HD
ENDBRANCH  31  34
ENDBRANCH   6  31
TORSDOF 5
ENDMDL
MODEL 9
REMARK VINA RESULT:     -10.8     26.152     28.800
REMARK  5 active torsions:
REMARK  status: ('A' for Active; 'I' for Inactive)
REMARK    1  A    between atoms: S_3  and  O_4 
REMARK    2  A    between atoms: S_3  and  C_15 
REMARK    3  A    between atoms: N_9  and  C_30 
REMARK    4  A    between atoms: C_11  and  C_13 
REMARK    5  A    between atoms: C_18  and  C_25 
ROOT
HETATM    1  S   UNL     1      28.041   9.607 -12.747  1.00  0.00    -0.068 SA
HETATM    2  N   UNL     1      25.554   9.330 -13.084  1.00  0.00    -0.344 N 
HETATM    3  C   UNL     1      25.794   9.289 -11.732  1.00  0.00     0.053 A 
HETATM    4  C   UNL     1      26.720   9.475 -13.800  1.00  0.00     0.087 A 
HETATM    5  C   UNL     1      27.125   9.428 -11.358  1.00  0.00     0.057 A 
HETATM    6  C   UNL     1      27.546   9.417 -10.021  1.00  0.00     0.097 A 
HETATM    7  C   UNL     1      26.555   9.257  -9.018  1.00  0.00    -0.037 A 
HETATM    8  C   UNL     1      24.816   9.138 -10.737  1.00  0.00     0.031 A 
HETATM    9  C   UNL     1      24.186   9.285 -13.617  1.00  0.00     0.157 C 
HETATM   10  C   UNL     1      25.200   9.120  -9.392  1.00  0.00     0.011 A 
HETATM   11  C   UNL     1      26.913   9.230  -7.556  1.00  0.00     0.050 C 
ENDROOT
BRANCH   4  12
HETATM   12  C   UNL     1      26.907   9.488 -15.285  1.00  0.00    -0.001 A 
HETATM   13  C   UNL     1      25.823   9.489 -16.194  1.00  0.00     0.035 A 
HETATM   14  C   UNL     1      26.087   9.474 -17.560  1.00  0.00     0.034 A 
HETATM   15  S   UNL     1      24.990   9.484 -18.817  1.00  0.00    -0.069 SA
HETATM   16  C   UNL     1      27.368   9.448 -18.078  1.00  0.00     0.052 A 
HETATM   17  C   UNL     1      26.189   9.434 -20.019  1.00  0.00     0.087 A 
HETATM   18  N   UNL     1      27.442   9.445 -19.448  1.00  0.00    -0.344 N 
HETATM   19  C   UNL     1      28.736   9.506 -20.142  1.00  0.00     0.157 C 
HETATM   20  C   UNL     1      28.459   9.434 -17.197  1.00  0.00     0.032 A 
HETATM   21  C   UNL     1      28.223   9.442 -15.812  1.00  0.00     0.016 A 
BRANCH  17  22
HETATM   22  C   UNL     1      25.828   9.351 -21.470  1.00  0.00    -0.002 A 
HETATM   23  C   UNL     1      24.499   9.331 -21.930  1.00  0.00     0.016 A 
HETATM   24  C   UNL     1      24.208   9.277 -23.296  1.00  0.00     0.030 A 
HETATM   25  C   UNL     1      25.235   9.250 -24.263  1.00  0.00     0.029 A 
HETATM   26  C   UNL     1      26.567   9.292 -23.799  1.00  0.00     0.030 A 
HETATM   27  C   UNL     1      26.854   9.349 -22.433  1.00  0.00     0.016 A 
BRANCH  25  28
HETATM   28  N   UNL     1      24.935   9.194 -25.674  1.00  0.00    -0.390 N 
HETATM   29  C   UNL     1      24.450  10.375 -26.378  1.00  0.00     0.149 C 
HETATM   30  C   UNL     1      25.110   7.955 -26.422  1.00  0.00     0.149 C 
ENDBRANCH  25  28
ENDBRANCH  17  22
ENDBRANCH   4  12
BRANCH   6  31
HETATM   31  S   UNL     1      29.298   9.601  -9.608  1.00  0.00     0.131 S 
HETATM   32  O   UNL     1      30.213   8.801 -10.549  1.00  0.00    -0.598 OA
HETATM   33  O   UNL     1      29.788  11.034  -9.870  1.00  0.00    -0.598 OA
BRANCH  31  34
HETATM   34  O   UNL     1      29.860   9.246  -8.023  1.00  0.00    -0.292 OA
HETATM   35  H   UNL     1      29.227   8.569  -7.672  1.00  0.00     0.232 HD
ENDBRANCH  31  34
ENDBRANCH   6  31
TORSDOF 5
ENDMDL
MODEL 10
REMARK VINA RESULT:     -10.8      2.470      3.526
REMARK  5 active torsions:
REMARK  status: ('A' for Active; 'I' for Inactive)
REMARK    1  A    between atoms: S_3  and  O_4 
REMARK    2  A    between atoms: S_3  and  C_15 
REMARK    3  A    between atoms: N_9  and  C_30 
REMARK    4  A    between atoms: C_11  and  C_13 
REMARK    5  A    between atoms: C_18  and  C_25 
ROOT
HETATM    1  S   UNL     1      36.386 -15.256 -17.165  1.00  0.00    -0.068 SA
HETATM    2  N   UNL     1      33.958 -15.106 -16.490  1.00  0.00    -0.344 N 
HETATM    3  C   UNL     1      34.010 -15.045 -17.862  1.00  0.00     0.053 A 
HETATM    4  C   UNL     1      35.216 -15.197 -15.941  1.00  0.00     0.087 A 
HETATM    5  C   UNL     1      35.283 -15.115 -18.414  1.00  0.00     0.057 A 
HETATM    6  C   UNL     1      35.517 -15.075 -19.796  1.00  0.00     0.097 A 
HETATM    7  C   UNL     1      34.393 -14.959 -20.653  1.00  0.00    -0.037 A 
HETATM    8  C   UNL     1      32.899 -14.938 -18.713  1.00  0.00     0.031 A 
HETATM    9  C   UNL     1      32.674 -15.134 -15.776  1.00  0.00     0.157 C 
HETATM   10  C   UNL     1      33.096 -14.893 -20.097  1.00  0.00     0.011 A 
HETATM   11  C   UNL     1      34.547 -14.906 -22.150  1.00  0.00     0.050 C 
ENDROOT
BRANCH   4  12
HETATM   12  C   UNL     1      35.603 -15.209 -14.494  1.00  0.00    -0.001 A 
HETATM   13  C   UNL     1      34.656 -15.141 -13.447  1.00  0.00     0.035 A 
HETATM   14  C   UNL     1      35.104 -15.131 -12.130  1.00  0.00     0.034 A 
HETATM   15  S   UNL     1      34.191 -15.068 -10.736  1.00  0.00    -0.069 SA
HETATM   16  C   UNL     1      36.444 -15.175 -11.792  1.00  0.00     0.052 A 
HETATM   17  C   UNL     1      35.544 -15.077  -9.709  1.00  0.00     0.087 A 
HETATM   18  N   UNL     1      36.705 -15.165 -10.444  1.00  0.00    -0.344 N 
HETATM   19  C   UNL     1      38.076 -15.295  -9.932  1.00  0.00     0.157 C 
HETATM   20  C   UNL     1      37.403 -15.230 -12.813  1.00  0.00     0.032 A 
HETATM   21  C   UNL     1      36.980 -15.235 -14.152  1.00  0.00     0.016 A 
BRANCH  17  22
HETATM   22  C   UNL     1      35.390 -14.963  -8.223  1.00  0.00    -0.002 A 
HETATM   23  C   UNL     1      34.454 -14.109  -7.613  1.00  0.00     0.016 A 
HETATM   24  C   UNL     1      34.328 -14.051  -6.222  1.00  0.00     0.030 A 
HETATM   25  C   UNL     1      35.128 -14.853  -5.381  1.00  0.00     0.029 A 
HETATM   26  C   UNL     1      36.051 -15.724  -5.997  1.00  0.00     0.030 A 
HETATM   27  C   UNL     1      36.171 -15.782  -7.388  1.00  0.00     0.016 A 
BRANCH  25  28
HETATM   28  N   UNL     1      34.999 -14.794  -3.944  1.00  0.00    -0.390 N 
HETATM   29  C   UNL     1      36.044 -15.330  -3.081  1.00  0.00     0.149 C 
HETATM   30  C   UNL     1      33.820 -14.198  -3.328  1.00  0.00     0.149 C 
ENDBRANCH  25  28
ENDBRANCH  17  22
ENDBRANCH   4  12
BRANCH   6  31
HETATM   31  S   UNL     1      37.203 -15.168 -20.444  1.00  0.00     0.131 S 
HETATM   32  O   UNL     1      38.263 -15.211 -19.331  1.00  0.00    -0.598 OA
HETATM   33  O   UNL     1      37.461 -16.511 -21.145  1.00  0.00    -0.598 OA
BRANCH  31  34
HETATM   34  O   UNL     1      37.772 -13.993 -21.562  1.00  0.00    -0.292 OA
HETATM   35  H   UNL     1      37.758 -13.136 -21.063  1.00  0.00     0.232 HD
ENDBRANCH  31  34
ENDBRANCH   6  31
TORSDOF 5
ENDMDL
MODEL 11
REMARK VINA RESULT:     -10.7      2.131      2.702
REMARK  5 active torsions:
REMARK  status: ('A' for Active; 'I' for Inactive)
REMARK    1  A    between atoms: S_3  and  O_4 
REMARK    2  A    between atoms: S_3  and  C_15 
REMARK    3  A    between atoms: N_9  and  C_30 
REMARK    4  A    between atoms: C_11  and  C_13 
REMARK    5  A    between atoms: C_18  and  C_25 
ROOT
HETATM    1  S   UNL     1      33.732 -14.874 -18.177  1.00  0.00    -0.068 SA
HETATM    2  N   UNL     1      36.005 -14.989 -17.086  1.00  0.00    -0.344 N 
HETATM    3  C   UNL     1      36.190 -15.125 -18.440  1.00  0.00     0.053 A 
HETATM    4  C   UNL     1      34.672 -14.867 -16.768  1.00  0.00     0.087 A 
HETATM    5  C   UNL     1      35.033 -15.085 -19.207  1.00  0.00     0.057 A 
HETATM    6  C   UNL     1      35.040 -15.200 -20.605  1.00  0.00     0.097 A 
HETATM    7  C   UNL     1      36.295 -15.364 -21.247  1.00  0.00    -0.037 A 
HETATM    8  C   UNL     1      37.430 -15.280 -19.079  1.00  0.00     0.031 A 
HETATM    9  C   UNL     1      37.146 -14.924 -16.162  1.00  0.00     0.157 C 
HETATM   10  C   UNL     1      37.476 -15.401 -20.472  1.00  0.00     0.011 A 
HETATM   11  C   UNL     1      36.401 -15.500 -22.743  1.00  0.00     0.050 C 
ENDROOT
BRANCH   4  12
HETATM   12  C   UNL     1      34.040 -14.775 -15.413  1.00  0.00    -0.001 A 
HETATM   13  C   UNL     1      34.787 -14.547 -14.234  1.00  0.00     0.035 A 
HETATM   14  C   UNL     1      34.122 -14.502 -13.012  1.00  0.00     0.034 A 
HETATM   15  S   UNL     1      34.774 -14.240 -11.499  1.00  0.00    -0.069 SA
HETATM   16  C   UNL     1      32.757 -14.681 -12.893  1.00  0.00     0.052 A 
HETATM   17  C   UNL     1      33.281 -14.380 -10.703  1.00  0.00     0.087 A 
HETATM   18  N   UNL     1      32.270 -14.597 -11.612  1.00  0.00    -0.344 N 
HETATM   19  C   UNL     1      30.828 -14.678 -11.339  1.00  0.00     0.157 C 
HETATM   20  C   UNL     1      31.998 -14.921 -14.046  1.00  0.00     0.032 A 
HETATM   21  C   UNL     1      32.642 -14.978 -15.293  1.00  0.00     0.016 A 
BRANCH  17  22
HETATM   22  C   UNL     1      33.189 -14.304  -9.210  1.00  0.00    -0.002 A 
HETATM   23  C   UNL     1      33.036 -13.093  -8.512  1.00  0.00     0.016 A 
HETATM   24  C   UNL     1      32.930 -13.070  -7.119  1.00  0.00     0.030 A 
HETATM   25  C   UNL     1      32.963 -14.261  -6.362  1.00  0.00     0.029 A 
HETATM   26  C   UNL     1      33.094 -15.476  -7.067  1.00  0.00     0.030 A 
HETATM   27  C   UNL     1      33.196 -15.495  -8.461  1.00  0.00     0.016 A 
BRANCH  25  28
HETATM   28  N   UNL     1      32.854 -14.239  -4.922  1.00  0.00    -0.390 N 
HETATM   29  C   UNL     1      33.682 -15.113  -4.101  1.00  0.00     0.149 C 
HETATM   30  C   UNL     1      31.913 -13.343  -4.263  1.00  0.00     0.149 C 
ENDBRANCH  25  28
ENDBRANCH  17  22
ENDBRANCH   4  12
BRANCH   6  31
HETATM   31  S   UNL     1      33.493 -15.141 -21.539  1.00  0.00     0.131 S 
HETATM   32  O   UNL     1      32.266 -14.932 -20.637  1.00  0.00    -0.598 OA
HETATM   33  O   UNL     1      33.421 -13.889 -22.427  1.00  0.00    -0.598 OA
BRANCH  31  34
HETATM   34  O   UNL     1      33.063 -16.430 -22.593  1.00  0.00    -0.292 OA
HETATM   35  H   UNL     1      33.697 -16.364 -23.352  1.00  0.00     0.232 HD
ENDBRANCH  31  34
ENDBRANCH   6  31
TORSDOF 5
ENDMDL
MODEL 12
REMARK VINA RESULT:     -10.6      5.117     12.012
REMARK  5 active torsions:
REMARK  status: ('A' for Active; 'I' for Inactive)
REMARK    1  A    between atoms: S_3  and  O_4 
REMARK    2  A    between atoms: S_3  and  C_15 
REMARK    3  A    between atoms: N_9  and  C_30 
REMARK    4  A    between atoms: C_11  and  C_13 
REMARK    5  A    between atoms: C_18  and  C_25 
ROOT
HETATM    1  S   UNL     1      35.350 -15.022 -10.126  1.00  0.00    -0.068 SA
HETATM    2  N   UNL     1      32.987 -14.930 -11.009  1.00  0.00    -0.344 N 
HETATM    3  C   UNL     1      32.913 -14.977  -9.638  1.00  0.00     0.053 A 
HETATM    4  C   UNL     1      34.290 -14.976 -11.447  1.00  0.00     0.087 A 
HETATM    5  C   UNL     1      34.134 -15.031  -8.977  1.00  0.00     0.057 A 
HETATM    6  C   UNL     1      34.242 -15.076  -7.580  1.00  0.00     0.097 A 
HETATM    7  C   UNL     1      33.041 -15.063  -6.824  1.00  0.00    -0.037 A 
HETATM    8  C   UNL     1      31.728 -14.957  -8.887  1.00  0.00     0.031 A 
HETATM    9  C   UNL     1      31.779 -14.780 -11.833  1.00  0.00     0.157 C 
HETATM   10  C   UNL     1      31.798 -15.003  -7.491  1.00  0.00     0.011 A 
HETATM   11  C   UNL     1      33.059 -15.112  -5.319  1.00  0.00     0.050 C 
ENDROOT
BRANCH   4  12
HETATM   12  C   UNL     1      34.800 -15.024 -12.854  1.00  0.00    -0.001 A 
HETATM   13  C   UNL     1      33.956 -14.886 -13.980  1.00  0.00     0.035 A 
HETATM   14  C   UNL     1      34.510 -14.970 -15.254  1.00  0.00     0.034 A 
HETATM   15  S   UNL     1      33.731 -14.830 -16.722  1.00  0.00    -0.069 SA
HETATM   16  C   UNL     1      35.856 -15.193 -15.474  1.00  0.00     0.052 A 
HETATM   17  C   UNL     1      35.146 -15.080 -17.629  1.00  0.00     0.087 A 
HETATM   18  N   UNL     1      36.230 -15.238 -16.795  1.00  0.00    -0.344 N 
HETATM   19  C   UNL     1      37.640 -15.380 -17.183  1.00  0.00     0.157 C 
HETATM   20  C   UNL     1      36.711 -15.345 -14.374  1.00  0.00     0.032 A 
HETATM   21  C   UNL     1      36.179 -15.272 -13.076  1.00  0.00     0.016 A 
BRANCH  17  22
HETATM   22  C   UNL     1      35.106 -15.143 -19.125  1.00  0.00    -0.002 A 
HETATM   23  C   UNL     1      36.164 -15.653 -19.899  1.00  0.00     0.016 A 
HETATM   24  C   UNL     1      36.075 -15.714 -21.293  1.00  0.00     0.030 A 
HETATM   25  C   UNL     1      34.918 -15.276 -21.972  1.00  0.00     0.029 A 
HETATM   26  C   UNL     1      33.851 -14.786 -21.191  1.00  0.00     0.030 A 
HETATM   27  C   UNL     1      33.942 -14.730 -19.798  1.00  0.00     0.016 A 
BRANCH  25  28
HETATM   28  N   UNL     1      34.825 -15.340 -23.412  1.00  0.00    -0.390 N 
HETATM   29  C   UNL     1      33.543 -15.159 -24.082  1.00  0.00     0.149 C 
HETATM   30  C   UNL     1      36.010 -15.587 -24.223  1.00  0.00     0.149 C 
ENDBRANCH  25  28
ENDBRANCH  17  22
ENDBRANCH   4  12
BRANCH   6  31
HETATM   31  S   UNL     1      35.866 -15.148  -6.787  1.00  0.00     0.131 S 
HETATM   32  O   UNL     1      35.857 -14.558  -5.367  1.00  0.00    -0.598 OA
HETATM   33  O   UNL     1      36.286 -16.597  -6.499  1.00  0.00    -0.598 OA
BRANCH  31  34
HETATM   34  O   UNL     1      37.239 -14.455  -7.553  1.00  0.00    -0.292 OA
HETATM   35  H   UNL     1      37.209 -14.788  -8.486  1.00  0.00     0.232 HD
ENDBRANCH  31  34
ENDBRANCH   6  31
TORSDOF 5
ENDMDL
MODEL 13
REMARK VINA RESULT:     -10.6      2.280      3.200
REMARK  5 active torsions:
REMARK  status: ('A' for Active; 'I' for Inactive)
REMARK    1  A    between atoms: S_3  and  O_4 
REMARK    2  A    between atoms: S_3  and  C_15 
REMARK    3  A    between atoms: N_9  and  C_30 
REMARK    4  A    between atoms: C_11  and  C_13 
REMARK    5  A    between atoms: C_18  and  C_25 
ROOT
HETATM    1  S   UNL     1      35.080 -15.099 -18.438  1.00  0.00    -0.068 SA
HETATM    2  N   UNL     1      32.732 -14.809 -17.559  1.00  0.00    -0.344 N 
HETATM    3  C   UNL     1      32.672 -14.728 -18.930  1.00  0.00     0.053 A 
HETATM    4  C   UNL     1      34.022 -14.989 -17.119  1.00  0.00     0.087 A 
HETATM    5  C   UNL     1      33.888 -14.868 -19.588  1.00  0.00     0.057 A 
HETATM    6  C   UNL     1      34.008 -14.819 -20.984  1.00  0.00     0.097 A 
HETATM    7  C   UNL     1      32.826 -14.617 -21.742  1.00  0.00    -0.037 A 
HETATM    8  C   UNL     1      31.504 -14.536 -19.682  1.00  0.00     0.031 A 
HETATM    9  C   UNL     1      31.512 -14.768 -16.740  1.00  0.00     0.157 C 
HETATM   10  C   UNL     1      31.586 -14.479 -21.078  1.00  0.00     0.011 A 
HETATM   11  C   UNL     1      32.858 -14.547 -23.246  1.00  0.00     0.050 C 
ENDROOT
BRANCH   4  12
HETATM   12  C   UNL     1      34.528 -15.050 -15.711  1.00  0.00    -0.001 A 
HETATM   13  C   UNL     1      33.668 -15.038 -14.588  1.00  0.00     0.035 A 
HETATM   14  C   UNL     1      34.224 -15.072 -13.312  1.00  0.00     0.034 A 
HETATM   15  S   UNL     1      33.427 -15.077 -11.847  1.00  0.00    -0.069 SA
HETATM   16  C   UNL     1      35.587 -15.107 -13.087  1.00  0.00     0.052 A 
HETATM   17  C   UNL     1      34.860 -15.105 -10.935  1.00  0.00     0.087 A 
HETATM   18  N   UNL     1      35.957 -15.145 -11.766  1.00  0.00    -0.344 N 
HETATM   19  C   UNL     1      37.368 -15.273 -11.373  1.00  0.00     0.157 C 
HETATM   20  C   UNL     1      36.459 -15.107 -14.184  1.00  0.00     0.032 A 
HETATM   21  C   UNL     1      35.927 -15.067 -15.484  1.00  0.00     0.016 A 
BRANCH  17  22
HETATM   22  C   UNL     1      34.828 -15.050  -9.438  1.00  0.00    -0.002 A 
HETATM   23  C   UNL     1      35.549 -15.940  -8.623  1.00  0.00     0.016 A 
HETATM   24  C   UNL     1      35.508 -15.838  -7.230  1.00  0.00     0.030 A 
HETATM   25  C   UNL     1      34.750 -14.832  -6.591  1.00  0.00     0.029 A 
HETATM   26  C   UNL     1      34.046 -13.928  -7.413  1.00  0.00     0.030 A 
HETATM   27  C   UNL     1      34.092 -14.031  -8.806  1.00  0.00     0.016 A 
BRANCH  25  28
HETATM   28  N   UNL     1      34.708 -14.726  -5.152  1.00  0.00    -0.390 N 
HETATM   29  C   UNL     1      33.501 -14.266  -4.476  1.00  0.00     0.149 C 
HETATM   30  C   UNL     1      35.872 -15.075  -4.347  1.00  0.00     0.149 C 
ENDBRANCH  25  28
ENDBRANCH  17  22
ENDBRANCH   4  12
BRANCH   6  31
HETATM   31  S   UNL     1      35.625 -15.006 -21.774  1.00  0.00     0.131 S 
HETATM   32  O   UNL     1      36.765 -14.410 -20.933  1.00  0.00    -0.598 OA
HETATM   33  O   UNL     1      36.049 -16.481 -21.839  1.00  0.00    -0.598 OA
BRANCH  31  34
HETATM   34  O   UNL     1      35.887 -14.421 -23.368  1.00  0.00    -0.292 OA
HETATM   35  H   UNL     1      35.176 -14.840 -23.917  1.00  0.00     0.232 HD
ENDBRANCH  31  34
ENDBRANCH   6  31
TORSDOF 5
ENDMDL
MODEL 14
REMARK VINA RESULT:     -10.6      3.168      4.005
REMARK  5 active torsions:
REMARK  status: ('A' for Active; 'I' for Inactive)
REMARK    1  A    between atoms: S_3  and  O_4 
REMARK    2  A    between atoms: S_3  and  C_15 
REMARK    3  A    between atoms: N_9  and  C_30 
REMARK    4  A    between atoms: C_11  and  C_13 
REMARK    5  A    between atoms: C_18  and  C_25 
ROOT
HETATM    1  S   UNL     1      35.640 -15.171 -18.751  1.00  0.00    -0.068 SA
HETATM    2  N   UNL     1      33.118 -15.108 -18.657  1.00  0.00    -0.344 N 
HETATM    3  C   UNL     1      33.482 -15.086 -19.982  1.00  0.00     0.053 A 
HETATM    4  C   UNL     1      34.217 -15.127 -17.831  1.00  0.00     0.087 A 
HETATM    5  C   UNL     1      34.849 -15.116 -20.224  1.00  0.00     0.057 A 
HETATM    6  C   UNL     1      35.394 -15.107 -21.517  1.00  0.00     0.097 A 
HETATM    7  C   UNL     1      34.493 -15.066 -22.612  1.00  0.00    -0.037 A 
HETATM    8  C   UNL     1      32.594 -15.053 -21.067  1.00  0.00     0.031 A 
HETATM    9  C   UNL     1      31.706 -15.171 -18.255  1.00  0.00     0.157 C 
HETATM   10  C   UNL     1      33.101 -15.040 -22.371  1.00  0.00     0.011 A 
HETATM   11  C   UNL     1      34.986 -15.050 -24.035  1.00  0.00     0.050 C 
ENDROOT
BRANCH   4  12
HETATM   12  C   UNL     1      34.262 -15.079 -16.335  1.00  0.00    -0.001 A 
HETATM   13  C   UNL     1      33.112 -14.863 -15.541  1.00  0.00     0.035 A 
HETATM   14  C   UNL     1      33.247 -14.806 -14.157  1.00  0.00     0.034 A 
HETATM   15  S   UNL     1      32.050 -14.575 -13.018  1.00  0.00    -0.069 SA
HETATM   16  C   UNL     1      34.463 -14.942 -13.515  1.00  0.00     0.052 A 
HETATM   17  C   UNL     1      33.126 -14.634 -11.705  1.00  0.00     0.087 A 
HETATM   18  N   UNL     1      34.410 -14.868 -12.145  1.00  0.00    -0.344 N 
HETATM   19  C   UNL     1      35.608 -15.082 -11.323  1.00  0.00     0.157 C 
HETATM   20  C   UNL     1      35.620 -15.145 -14.281  1.00  0.00     0.032 A 
HETATM   21  C   UNL     1      35.515 -15.200 -15.681  1.00  0.00     0.016 A 
BRANCH  17  22
HETATM   22  C   UNL     1      32.650 -14.411 -10.303  1.00  0.00    -0.002 A 
HETATM   23  C   UNL     1      32.530 -15.448  -9.359  1.00  0.00     0.016 A 
HETATM   24  C   UNL     1      32.103 -15.190  -8.054  1.00  0.00     0.030 A 
HETATM   25  C   UNL     1      31.787 -13.881  -7.632  1.00  0.00     0.029 A 
HETATM   26  C   UNL     1      31.930 -12.841  -8.574  1.00  0.00     0.030 A 
HETATM   27  C   UNL     1      32.359 -13.102  -9.877  1.00  0.00     0.016 A 
BRANCH  25  28
HETATM   28  N   UNL     1      31.346 -13.615  -6.282  1.00  0.00    -0.390 N 
HETATM   29  C   UNL     1      31.228 -14.696  -5.312  1.00  0.00     0.149 C 
HETATM   30  C   UNL     1      31.010 -12.260  -5.865  1.00  0.00     0.149 C 
ENDBRANCH  25  28
ENDBRANCH  17  22
ENDBRANCH   4  12
BRANCH   6  31
HETATM   31  S   UNL     1      37.186 -15.145 -21.758  1.00  0.00     0.131 S 
HETATM   32  O   UNL     1      37.921 -14.110 -20.891  1.00  0.00    -0.598 OA
HETATM   33  O   UNL     1      37.794 -16.454 -21.232  1.00  0.00    -0.598 OA
BRANCH  31  34
HETATM   34  O   UNL     1      37.855 -14.971 -23.331  1.00  0.00    -0.292 OA
HETATM   35  H   UNL     1      37.555 -15.774 -23.829  1.00  0.00     0.232 HD
ENDBRANCH  31  34
ENDBRANCH   6  31
TORSDOF 5
ENDMDL
MODEL 15
REMARK VINA RESULT:     -10.6      5.851     12.391
REMARK  5 active torsions:
REMARK  status: ('A' for Active; 'I' for Inactive)
REMARK    1  A    between atoms: S_3  and  O_4 
REMARK    2  A    between atoms: S_3  and  C_15 
REMARK    3  A    between atoms: N_9  and  C_30 
REMARK    4  A    between atoms: C_11  and  C_13 
REMARK    5  A    between atoms: C_18  and  C_25 
ROOT
HETATM    1  S   UNL     1      35.003 -14.795  -7.669  1.00  0.00    -0.068 SA
HETATM    2  N   UNL     1      32.770 -14.758  -8.846  1.00  0.00    -0.344 N 
HETATM    3  C   UNL     1      32.523 -14.784  -7.494  1.00  0.00     0.053 A 
HETATM    4  C   UNL     1      34.118 -14.789  -9.115  1.00  0.00     0.087 A 
HETATM    5  C   UNL     1      33.651 -14.806  -6.684  1.00  0.00     0.057 A 
HETATM    6  C   UNL     1      33.582 -14.826  -5.283  1.00  0.00     0.097 A 
HETATM    7  C   UNL     1      32.296 -14.823  -4.685  1.00  0.00    -0.037 A 
HETATM    8  C   UNL     1      31.253 -14.773  -6.900  1.00  0.00     0.031 A 
HETATM    9  C   UNL     1      31.674 -14.643  -9.819  1.00  0.00     0.157 C 
HETATM   10  C   UNL     1      31.145 -14.795  -5.505  1.00  0.00     0.011 A 
HETATM   11  C   UNL     1      32.123 -14.846  -3.190  1.00  0.00     0.050 C 
ENDROOT
BRANCH   4  12
HETATM   12  C   UNL     1      34.804 -14.852 -10.444  1.00  0.00    -0.001 A 
HETATM   13  C   UNL     1      34.111 -14.716 -11.670  1.00  0.00     0.035 A 
HETATM   14  C   UNL     1      34.823 -14.813 -12.862  1.00  0.00     0.034 A 
HETATM   15  S   UNL     1      34.239 -14.679 -14.419  1.00  0.00    -0.069 SA
HETATM   16  C   UNL     1      36.184 -15.047 -12.907  1.00  0.00     0.052 A 
HETATM   17  C   UNL     1      35.755 -14.946 -15.136  1.00  0.00     0.087 A 
HETATM   18  N   UNL     1      36.722 -15.105 -14.169  1.00  0.00    -0.344 N 
HETATM   19  C   UNL     1      38.169 -15.259 -14.373  1.00  0.00     0.157 C 
HETATM   20  C   UNL     1      36.890 -15.197 -11.706  1.00  0.00     0.032 A 
HETATM   21  C   UNL     1      36.197 -15.111 -10.487  1.00  0.00     0.016 A 
BRANCH  17  22
HETATM   22  C   UNL     1      35.906 -15.019 -16.624  1.00  0.00    -0.002 A 
HETATM   23  C   UNL     1      37.113 -15.367 -17.256  1.00  0.00     0.016 A 
HETATM   24  C   UNL     1      37.203 -15.446 -18.648  1.00  0.00     0.030 A 
HETATM   25  C   UNL     1      36.085 -15.190 -19.470  1.00  0.00     0.029 A 
HETATM   26  C   UNL     1      34.870 -14.863 -18.832  1.00  0.00     0.030 A 
HETATM   27  C   UNL     1      34.783 -14.788 -17.440  1.00  0.00     0.016 A 
BRANCH  25  28
HETATM   28  N   UNL     1      36.177 -15.272 -20.909  1.00  0.00    -0.390 N 
HETATM   29  C   UNL     1      34.975 -15.234 -21.734  1.00  0.00     0.149 C 
HETATM   30  C   UNL     1      37.472 -15.396 -21.564  1.00  0.00     0.149 C 
ENDBRANCH  25  28
ENDBRANCH  17  22
ENDBRANCH   4  12
BRANCH   6  31
HETATM   31  S   UNL     1      35.094 -14.857  -4.290  1.00  0.00     0.131 S 
HETATM   32  O   UNL     1      35.319 -16.212  -3.600  1.00  0.00    -0.598 OA
HETATM   33  O   UNL     1      36.347 -14.765  -5.173  1.00  0.00    -0.598 OA
BRANCH  31  34
HETATM   34  O   UNL     1      35.353 -13.680  -3.065  1.00  0.00    -0.292 OA
HETATM   35  H   UNL     1      34.452 -13.479  -2.706  1.00  0.00     0.232 HD
ENDBRANCH  31  34
ENDBRANCH   6  31
TORSDOF 5
ENDMDL
MODEL 16
REMARK VINA RESULT:     -10.6      4.748     11.727
REMARK  5 active torsions:
REMARK  status: ('A' for Active; 'I' for Inactive)
REMARK    1  A    between atoms: S_3  and  O_4 
REMARK    2  A    between atoms: S_3  and  C_15 
REMARK    3  A    between atoms: N_9  and  C_30 
REMARK    4  A    between atoms: C_11  and  C_13 
REMARK    5  A    between atoms: C_18  and  C_25 
ROOT
HETATM    1  S   UNL     1      34.446 -14.791 -11.355  1.00  0.00    -0.068 SA
HETATM    2  N   UNL     1      32.214 -13.629 -11.555  1.00  0.00    -0.344 N 
HETATM    3  C   UNL     1      32.534 -13.681 -10.220  1.00  0.00     0.053 A 
HETATM    4  C   UNL     1      33.174 -14.237 -12.329  1.00  0.00     0.087 A 
HETATM    5  C   UNL     1      33.745 -14.293  -9.921  1.00  0.00     0.057 A 
HETATM    6  C   UNL     1      34.229 -14.424  -8.611  1.00  0.00     0.097 A 
HETATM    7  C   UNL     1      33.434 -13.902  -7.558  1.00  0.00    -0.037 A 
HETATM    8  C   UNL     1      31.754 -13.159  -9.177  1.00  0.00     0.031 A 
HETATM    9  C   UNL     1      31.008 -12.932 -12.024  1.00  0.00     0.157 C 
HETATM   10  C   UNL     1      32.204 -13.274  -7.857  1.00  0.00     0.011 A 
HETATM   11  C   UNL     1      33.870 -13.999  -6.120  1.00  0.00     0.050 C 
ENDROOT
BRANCH   4  12
HETATM   12  C   UNL     1      33.175 -14.465 -13.809  1.00  0.00    -0.001 A 
HETATM   13  C   UNL     1      34.360 -14.484 -14.580  1.00  0.00     0.035 A 
HETATM   14  C   UNL     1      34.268 -14.676 -15.956  1.00  0.00     0.034 A 
HETATM   15  S   UNL     1      35.510 -14.748 -17.067  1.00  0.00    -0.069 SA
HETATM   16  C   UNL     1      33.062 -14.840 -16.612  1.00  0.00     0.052 A 
HETATM   17  C   UNL     1      34.469 -14.972 -18.391  1.00  0.00     0.087 A 
HETATM   18  N   UNL     1      33.159 -15.025 -17.969  1.00  0.00    -0.344 N 
HETATM   19  C   UNL     1      31.971 -15.301 -18.787  1.00  0.00     0.157 C 
HETATM   20  C   UNL     1      31.873 -14.812 -15.870  1.00  0.00     0.032 A 
HETATM   21  C   UNL     1      31.935 -14.614 -14.481  1.00  0.00     0.016 A 
BRANCH  17  22
HETATM   22  C   UNL     1      35.000 -15.048 -19.789  1.00  0.00    -0.002 A 
HETATM   23  C   UNL     1      34.388 -14.402 -20.878  1.00  0.00     0.016 A 
HETATM   24  C   UNL     1      34.931 -14.481 -22.163  1.00  0.00     0.030 A 
HETATM   25  C   UNL     1      36.118 -15.203 -22.413  1.00  0.00     0.029 A 
HETATM   26  C   UNL     1      36.742 -15.830 -21.315  1.00  0.00     0.030 A 
HETATM   27  C   UNL     1      36.197 -15.747 -20.031  1.00  0.00     0.016 A 
BRANCH  25  28
HETATM   28  N   UNL     1      36.680 -15.284 -23.741  1.00  0.00    -0.390 N 
HETATM   29  C   UNL     1      38.120 -15.183 -23.946  1.00  0.00     0.149 C 
HETATM   30  C   UNL     1      35.819 -15.468 -24.902  1.00  0.00     0.149 C 
ENDBRANCH  25  28
ENDBRANCH  17  22
ENDBRANCH   4  12
BRANCH   6  31
HETATM   31  S   UNL     1      35.814 -15.236  -8.295  1.00  0.00     0.131 S 
HETATM   32  O   UNL     1      35.650 -16.612  -7.629  1.00  0.00    -0.598 OA
HETATM   33  O   UNL     1      36.515 -15.626  -9.605  1.00  0.00    -0.598 OA
BRANCH  31  34
HETATM   34  O   UNL     1      37.033 -14.437  -7.385  1.00  0.00    -0.292 OA
HETATM   35  H   UNL     1      37.002 -14.859  -6.488  1.00  0.00     0.232 HD
ENDBRANCH  31  34
ENDBRANCH   6  31
TORSDOF 5
ENDMDL
MODEL 17
REMARK VINA RESULT:     -10.4      1.572      2.314
REMARK  5 active torsions:
REMARK  status: ('A' for Active; 'I' for Inactive)
REMARK    1  A    between atoms: S_3  and  O_4 
REMARK    2  A    between atoms: S_3  and  C_15 
REMARK    3  A    between atoms: N_9  and  C_30 
REMARK    4  A    between atoms: C_11  and  C_13 
REMARK    5  A    between atoms: C_18  and  C_25 
ROOT
HETATM    1  S   UNL     1      33.084 -14.255 -17.186  1.00  0.00    -0.068 SA
HETATM    2  N   UNL     1      35.304 -15.448 -17.035  1.00  0.00    -0.344 N 
HETATM    3  C   UNL     1      35.005 -15.300 -18.368  1.00  0.00     0.053 A 
HETATM    4  C   UNL     1      34.309 -14.937 -16.234  1.00  0.00     0.087 A 
HETATM    5  C   UNL     1      33.805 -14.656 -18.641  1.00  0.00     0.057 A 
HETATM    6  C   UNL     1      33.350 -14.414 -19.946  1.00  0.00     0.097 A 
HETATM    7  C   UNL     1      34.165 -14.854 -21.021  1.00  0.00    -0.037 A 
HETATM    8  C   UNL     1      35.812 -15.727 -19.433  1.00  0.00     0.031 A 
HETATM    9  C   UNL     1      36.581 -16.030 -16.599  1.00  0.00     0.157 C 
HETATM   10  C   UNL     1      35.388 -15.505 -20.748  1.00  0.00     0.011 A 
HETATM   11  C   UNL     1      33.757 -14.642 -22.454  1.00  0.00     0.050 C 
ENDROOT
BRANCH   4  12
HETATM   12  C   UNL     1      34.207 -14.965 -14.740  1.00  0.00    -0.001 A 
HETATM   13  C   UNL     1      35.336 -14.871 -13.894  1.00  0.00     0.035 A 
HETATM   14  C   UNL     1      35.153 -14.931 -12.516  1.00  0.00     0.034 A 
HETATM   15  S   UNL     1      36.314 -14.833 -11.322  1.00  0.00    -0.069 SA
HETATM   16  C   UNL     1      33.912 -15.089 -11.928  1.00  0.00     0.052 A 
HETATM   17  C   UNL     1      35.197 -15.017 -10.056  1.00  0.00     0.087 A 
HETATM   18  N   UNL     1      33.918 -15.120 -10.556  1.00  0.00    -0.344 N 
HETATM   19  C   UNL     1      32.666 -15.195  -9.790  1.00  0.00     0.157 C 
HETATM   20  C   UNL     1      32.779 -15.197 -12.747  1.00  0.00     0.032 A 
HETATM   21  C   UNL     1      32.934 -15.146 -14.142  1.00  0.00     0.016 A 
BRANCH  17  22
HETATM   22  C   UNL     1      35.646 -15.086  -8.629  1.00  0.00    -0.002 A 
HETATM   23  C   UNL     1      36.942 -15.483  -8.252  1.00  0.00     0.016 A 
HETATM   24  C   UNL     1      37.326 -15.510  -6.908  1.00  0.00     0.030 A 
HETATM   25  C   UNL     1      36.433 -15.130  -5.883  1.00  0.00     0.029 A 
HETATM   26  C   UNL     1      35.142 -14.711  -6.267  1.00  0.00     0.030 A 
HETATM   27  C   UNL     1      34.762 -14.682  -7.612  1.00  0.00     0.016 A 
BRANCH  25  28
HETATM   28  N   UNL     1      36.830 -15.158  -4.495  1.00  0.00    -0.390 N 
HETATM   29  C   UNL     1      38.214 -15.426  -4.123  1.00  0.00     0.149 C 
HETATM   30  C   UNL     1      35.855 -14.919  -3.439  1.00  0.00     0.149 C 
ENDBRANCH  25  28
ENDBRANCH  17  22
ENDBRANCH   4  12
BRANCH   6  31
HETATM   31  S   UNL     1      31.775 -13.571 -20.227  1.00  0.00     0.131 S 
HETATM   32  O   UNL     1      30.691 -14.513 -20.776  1.00  0.00    -0.598 OA
HETATM   33  O   UNL     1      31.133 -13.125 -18.905  1.00  0.00    -0.598 OA
BRANCH  31  34
HETATM   34  O   UNL     1      31.703 -12.173 -21.224  1.00  0.00    -0.292 OA
HETATM   35  H   UNL     1      31.711 -11.407 -20.594  1.00  0.00     0.232 HD
ENDBRANCH  31  34
ENDBRANCH   6  31
TORSDOF 5
ENDMDL
MODEL 18
REMARK VINA RESULT:     -10.3      2.825      3.802
REMARK  5 active torsions:
REMARK  status: ('A' for Active; 'I' for Inactive)
REMARK    1  A    between atoms: S_3  and  O_4 
REMARK    2  A    between atoms: S_3  and  C_15 
REMARK    3  A    between atoms: N_9  and  C_30 
REMARK    4  A    between atoms: C_11  and  C_13 
REMARK    5  A    between atoms: C_18  and  C_25 
ROOT
HETATM    1  S   UNL     1      35.239 -15.141 -17.441  1.00  0.00    -0.068 SA
HETATM    2  N   UNL     1      32.782 -14.829 -16.953  1.00  0.00    -0.344 N 
HETATM    3  C   UNL     1      32.936 -14.817 -18.319  1.00  0.00     0.053 A 
HETATM    4  C   UNL     1      33.988 -14.974 -16.309  1.00  0.00     0.087 A 
HETATM    5  C   UNL     1      34.239 -14.978 -18.772  1.00  0.00     0.057 A 
HETATM    6  C   UNL     1      34.575 -14.998 -20.134  1.00  0.00     0.097 A 
HETATM    7  C   UNL     1      33.524 -14.846 -21.075  1.00  0.00    -0.037 A 
HETATM    8  C   UNL     1      31.898 -14.674 -19.252  1.00  0.00     0.031 A 
HETATM    9  C   UNL     1      31.450 -14.758 -16.336  1.00  0.00     0.157 C 
HETATM   10  C   UNL     1      32.196 -14.686 -20.619  1.00  0.00     0.011 A 
HETATM   11  C   UNL     1      33.789 -14.851 -22.557  1.00  0.00     0.050 C 
ENDROOT
BRANCH   4  12
HETATM   12  C   UNL     1      34.269 -14.960 -14.839  1.00  0.00    -0.001 A 
HETATM   13  C   UNL     1      33.271 -14.699 -13.871  1.00  0.00     0.035 A 
HETATM   14  C   UNL     1      33.625 -14.679 -12.525  1.00  0.00     0.034 A 
HETATM   15  S   UNL     1      32.636 -14.408 -11.210  1.00  0.00    -0.069 SA
HETATM   16  C   UNL     1      34.916 -14.894 -12.084  1.00  0.00     0.052 A 
HETATM   17  C   UNL     1      33.899 -14.553 -10.083  1.00  0.00     0.087 A 
HETATM   18  N   UNL     1      35.082 -14.846 -10.723  1.00  0.00    -0.344 N 
HETATM   19  C   UNL     1      36.381 -15.143 -10.102  1.00  0.00     0.157 C 
HETATM   20  C   UNL     1      35.925 -15.144 -13.026  1.00  0.00     0.032 A 
HETATM   21  C   UNL     1      35.600 -15.163 -14.392  1.00  0.00     0.016 A 
BRANCH  17  22
HETATM   22  C   UNL     1      33.661 -14.334  -8.620  1.00  0.00    -0.002 A 
HETATM   23  C   UNL     1      33.456 -13.061  -8.058  1.00  0.00     0.016 A 
HETATM   24  C   UNL     1      33.214 -12.905  -6.691  1.00  0.00     0.030 A 
HETATM   25  C   UNL     1      33.157 -14.019  -5.826  1.00  0.00     0.029 A 
HETATM   26  C   UNL     1      33.340 -15.296  -6.397  1.00  0.00     0.030 A 
HETATM   27  C   UNL     1      33.579 -15.448  -7.765  1.00  0.00     0.016 A 
BRANCH  25  28
HETATM   28  N   UNL     1      32.907 -13.859  -4.413  1.00  0.00    -0.390 N 
HETATM   29  C   UNL     1      32.642 -12.540  -3.850  1.00  0.00     0.149 C 
HETATM   30  C   UNL     1      32.915 -15.012  -3.521  1.00  0.00     0.149 C 
ENDBRANCH  25  28
ENDBRANCH  17  22
ENDBRANCH   4  12
BRANCH   6  31
HETATM   31  S   UNL     1      36.294 -15.210 -20.653  1.00  0.00     0.131 S 
HETATM   32  O   UNL     1      37.268 -15.257 -19.464  1.00  0.00    -0.598 OA
HETATM   33  O   UNL     1      36.525 -16.595 -21.276  1.00  0.00    -0.598 OA
BRANCH  31  34
HETATM   34  O   UNL     1      37.005 -14.119 -21.774  1.00  0.00    -0.292 OA
HETATM   35  H   UNL     1      36.299 -13.945 -22.447  1.00  0.00     0.232 HD
ENDBRANCH  31  34
ENDBRANCH   6  31
TORSDOF 5
ENDMDL
MODEL 19
REMARK VINA RESULT:     -10.3      2.388      2.960
REMARK  5 active torsions:
REMARK  status: ('A' for Active; 'I' for Inactive)
REMARK    1  A    between atoms: S_3  and  O_4 
REMARK    2  A    between atoms: S_3  and  C_15 
REMARK    3  A    between atoms: N_9  and  C_30 
REMARK    4  A    between atoms: C_11  and  C_13 
REMARK    5  A    between atoms: C_18  and  C_25 
ROOT
HETATM    1  S   UNL     1      35.230 -15.093 -19.092  1.00  0.00    -0.068 SA
HETATM    2  N   UNL     1      32.719 -14.989 -19.324  1.00  0.00    -0.344 N 
HETATM    3  C   UNL     1      33.249 -15.010 -20.592  1.00  0.00     0.053 A 
HETATM    4  C   UNL     1      33.703 -15.001 -18.364  1.00  0.00     0.087 A 
HETATM    5  C   UNL     1      34.636 -15.068 -20.656  1.00  0.00     0.057 A 
HETATM    6  C   UNL     1      35.341 -15.104 -21.867  1.00  0.00     0.097 A 
HETATM    7  C   UNL     1      34.589 -15.081 -23.070  1.00  0.00    -0.037 A 
HETATM    8  C   UNL     1      32.508 -14.995 -21.783  1.00  0.00     0.031 A 
HETATM    9  C   UNL     1      31.266 -15.019 -19.105  1.00  0.00     0.157 C 
HETATM   10  C   UNL     1      33.179 -15.027 -23.010  1.00  0.00     0.011 A 
HETATM   11  C   UNL     1      35.260 -15.113 -24.418  1.00  0.00     0.050 C 
ENDROOT
BRANCH   4  12
HETATM   12  C   UNL     1      33.557 -14.911 -16.876  1.00  0.00    -0.001 A 
HETATM   13  C   UNL     1      34.665 -14.884 -15.998  1.00  0.00     0.035 A 
HETATM   14  C   UNL     1      34.439 -14.826 -14.626  1.00  0.00     0.034 A 
HETATM   15  S   UNL     1      35.570 -14.774 -13.402  1.00  0.00    -0.069 SA
HETATM   16  C   UNL     1      33.172 -14.803 -14.074  1.00  0.00     0.052 A 
HETATM   17  C   UNL     1      34.404 -14.742 -12.167  1.00  0.00     0.087 A 
HETATM   18  N   UNL     1      33.136 -14.736 -12.704  1.00  0.00    -0.344 N 
HETATM   19  C   UNL     1      31.862 -14.616 -11.980  1.00  0.00     0.157 C 
HETATM   20  C   UNL     1      32.057 -14.840 -14.924  1.00  0.00     0.032 A 
HETATM   21  C   UNL     1      32.255 -14.906 -16.313  1.00  0.00     0.016 A 
BRANCH  17  22
HETATM   22  C   UNL     1      34.803 -14.759 -10.723  1.00  0.00    -0.002 A 
HETATM   23  C   UNL     1      33.958 -14.319  -9.689  1.00  0.00     0.016 A 
HETATM   24  C   UNL     1      34.363 -14.375  -8.353  1.00  0.00     0.030 A 
HETATM   25  C   UNL     1      35.629 -14.884  -7.992  1.00  0.00     0.029 A 
HETATM   26  C   UNL     1      36.465 -15.345  -9.030  1.00  0.00     0.030 A 
HETATM   27  C   UNL     1      36.055 -15.290 -10.365  1.00  0.00     0.016 A 
BRANCH  25  28
HETATM   28  N   UNL     1      36.048 -14.942  -6.611  1.00  0.00    -0.390 N 
HETATM   29  C   UNL     1      35.069 -15.116  -5.545  1.00  0.00     0.149 C 
HETATM   30  C   UNL     1      37.457 -14.827  -6.256  1.00  0.00     0.149 C 
ENDBRANCH  25  28
ENDBRANCH  17  22
ENDBRANCH   4  12
BRANCH   6  31
HETATM   31  S   UNL     1      37.149 -15.176 -21.875  1.00  0.00     0.131 S 
HETATM   32  O   UNL     1      37.784 -14.182 -20.890  1.00  0.00    -0.598 OA
HETATM   33  O   UNL     1      37.659 -16.512 -21.314  1.00  0.00    -0.598 OA
BRANCH  31  34
HETATM   34  O   UNL     1      38.021 -14.974 -23.343  1.00  0.00    -0.292 OA
HETATM   35  H   UNL     1      37.498 -15.472 -24.023  1.00  0.00     0.232 HD
ENDBRANCH  31  34
ENDBRANCH   6  31
TORSDOF 5
ENDMDL
MODEL 20
REMARK VINA RESULT:     -10.2      1.333      2.019
REMARK  5 active torsions:
REMARK  status: ('A' for Active; 'I' for Inactive)
REMARK    1  A    between atoms: S_3  and  O_4 
REMARK    2  A    between atoms: S_3  and  C_15 
REMARK    3  A    between atoms: N_9  and  C_30 
REMARK    4  A    between atoms: C_11  and  C_13 
REMARK    5  A    between atoms: C_18  and  C_25 
ROOT
HETATM    1  S   UNL     1      34.031 -14.669 -19.612  1.00  0.00    -0.068 SA
HETATM    2  N   UNL     1      36.330 -15.224 -18.730  1.00  0.00    -0.344 N 
HETATM    3  C   UNL     1      36.399 -15.242 -20.102  1.00  0.00     0.053 A 
HETATM    4  C   UNL     1      35.057 -14.946 -18.291  1.00  0.00     0.087 A 
HETATM    5  C   UNL     1      35.211 -14.955 -20.762  1.00  0.00     0.057 A 
HETATM    6  C   UNL     1      35.105 -14.923 -22.160  1.00  0.00     0.097 A 
HETATM    7  C   UNL     1      36.273 -15.197 -22.917  1.00  0.00    -0.037 A 
HETATM    8  C   UNL     1      37.554 -15.506 -20.854  1.00  0.00     0.031 A 
HETATM    9  C   UNL     1      37.530 -15.421 -17.904  1.00  0.00     0.157 C 
HETATM   10  C   UNL     1      37.485 -15.485 -22.251  1.00  0.00     0.011 A 
HETATM   11  C   UNL     1      36.254 -15.189 -24.423  1.00  0.00     0.050 C 
ENDROOT
BRANCH   4  12
HETATM   12  C   UNL     1      34.541 -14.907 -16.886  1.00  0.00    -0.001 A 
HETATM   13  C   UNL     1      35.394 -14.903 -15.758  1.00  0.00     0.035 A 
HETATM   14  C   UNL     1      34.830 -14.893 -14.486  1.00  0.00     0.034 A 
HETATM   15  S   UNL     1      35.617 -14.876 -13.015  1.00  0.00    -0.069 SA
HETATM   16  C   UNL     1      33.465 -14.896 -14.269  1.00  0.00     0.052 A 
HETATM   17  C   UNL     1      34.178 -14.893 -12.112  1.00  0.00     0.087 A 
HETATM   18  N   UNL     1      33.085 -14.877 -12.950  1.00  0.00    -0.344 N 
HETATM   19  C   UNL     1      31.670 -14.789 -12.565  1.00  0.00     0.157 C 
HETATM   20  C   UNL     1      32.600 -14.912 -15.372  1.00  0.00     0.032 A 
HETATM   21  C   UNL     1      33.140 -14.929 -16.668  1.00  0.00     0.016 A 
BRANCH  17  22
HETATM   22  C   UNL     1      34.203 -14.957 -10.616  1.00  0.00    -0.002 A 
HETATM   23  C   UNL     1      35.395 -15.000  -9.870  1.00  0.00     0.016 A 
HETATM   24  C   UNL     1      35.371 -15.035  -8.473  1.00  0.00     0.030 A 
HETATM   25  C   UNL     1      34.153 -15.018  -7.761  1.00  0.00     0.029 A 
HETATM   26  C   UNL     1      32.961 -14.952  -8.511  1.00  0.00     0.030 A 
HETATM   27  C   UNL     1      32.988 -14.913  -9.908  1.00  0.00     0.016 A 
BRANCH  25  28
HETATM   28  N   UNL     1      34.128 -15.054  -6.317  1.00  0.00    -0.390 N 
HETATM   29  C   UNL     1      32.862 -15.067  -5.596  1.00  0.00     0.149 C 
HETATM   30  C   UNL     1      35.369 -15.077  -5.553  1.00  0.00     0.149 C 
ENDBRANCH  25  28
ENDBRANCH  17  22
ENDBRANCH   4  12
BRANCH   6  31
HETATM   31  S   UNL     1      33.523 -14.544 -22.952  1.00  0.00     0.131 S 
HETATM   32  O   UNL     1      32.878 -15.777 -23.604  1.00  0.00    -0.598 OA
HETATM   33  O   UNL     1      32.454 -14.166 -21.916  1.00  0.00    -0.598 OA
BRANCH  31  34
HETATM   34  O   UNL     1      33.420 -13.303 -24.137  1.00  0.00    -0.292 OA
HETATM   35  H   UNL     1      33.274 -13.778 -24.995  1.00  0.00     0.232 HD
ENDBRANCH  31  34
ENDBRANCH   6  31
TORSDOF 5
ENDMDL
