MODEL 1
REMARK VINA RESULT:      -5.0      0.000      0.000
REMARK  14 active torsions:
REMARK  status: ('A' for Active; 'I' for Inactive)
REMARK    1  A    between atoms: O_1  and  C_18 
REMARK    2  A    between atoms: C_3  and  C_4 
REMARK    3  A    between atoms: C_3  and  C_5 
REMARK    4  A    between atoms: C_4  and  C_6 
REMARK    5  A    between atoms: C_5  and  C_7 
REMARK    6  A    between atoms: C_6  and  C_8 
REMARK    7  A    between atoms: C_7  and  C_13 
REMARK    8  A    between atoms: C_8  and  C_15 
REMARK    9  A    between atoms: C_9  and  C_10 
REMARK   10  A    between atoms: C_9  and  C_11 
REMARK   11  A    between atoms: C_10  and  C_12 
REMARK   12  A    between atoms: C_11  and  C_14 
REMARK   13  A    between atoms: C_12  and  C_16 
REMARK   14  A    between atoms: C_15  and  C_18 
ROOT
HETATM    1  O   UNL     1      33.377 -12.278  -9.943  1.00  0.00    -0.776 OA
HETATM    2  H   UNL     1      33.993 -12.996  -9.738  1.00  0.00     0.167 HD
ENDROOT
BRANCH   1   3
HETATM    3  C   UNL     1      32.898 -12.098 -11.192  1.00  0.00     0.139 C 
HETATM    4  O   UNL     1      33.637 -11.677 -12.073  1.00  0.00    -0.650 OA
BRANCH   3   5
HETATM    5  C   UNL     1      31.454 -12.422 -11.474  1.00  0.00     0.110 C 
BRANCH   5   6
HETATM    6  C   UNL     1      31.253 -13.833 -12.047  1.00  0.00     0.010 C 
BRANCH   6   7
HETATM    7  C   UNL     1      31.578 -13.870 -13.545  1.00  0.00     0.001 C 
BRANCH   7   8
HETATM    8  C   UNL     1      32.442 -15.088 -13.891  1.00  0.00     0.000 C 
BRANCH   8   9
HETATM    9  C   UNL     1      33.347 -15.473 -12.714  1.00  0.00     0.000 C 
BRANCH   9  10
HETATM   10  C   UNL     1      34.715 -15.958 -13.208  1.00  0.00     0.004 C 
BRANCH  10  11
HETATM   11  C   UNL     1      35.720 -14.796 -13.270  1.00  0.00     0.027 C 
BRANCH  11  12
HETATM   12  C   UNL     1      37.148 -15.269 -13.154  1.00  0.00    -0.031 C 
HETATM   13  C   UNL     1      38.048 -15.306 -14.155  1.00  0.00    -0.031 C 
BRANCH  13  14
HETATM   14  C   UNL     1      37.808 -14.841 -15.571  1.00  0.00     0.027 C 
BRANCH  14  15
HETATM   15  C   UNL     1      37.358 -16.015 -16.445  1.00  0.00     0.004 C 
BRANCH  15  16
HETATM   16  C   UNL     1      35.861 -15.922 -16.765  1.00  0.00     0.000 C 
BRANCH  16  17
HETATM   17  C   UNL     1      35.502 -14.539 -17.322  1.00  0.00    -0.000 C 
BRANCH  17  18
HETATM   18  C   UNL     1      34.003 -14.442 -17.628  1.00  0.00    -0.005 C 
HETATM   19  C   UNL     1      33.305 -15.776 -17.383  1.00  0.00     0.005 C 
ENDBRANCH  17  18
ENDBRANCH  16  17
ENDBRANCH  15  16
ENDBRANCH  14  15
ENDBRANCH  13  14
ENDBRANCH  11  12
ENDBRANCH  10  11
ENDBRANCH   9  10
ENDBRANCH   8   9
ENDBRANCH   7   8
ENDBRANCH   6   7
ENDBRANCH   5   6
ENDBRANCH   3   5
ENDBRANCH   1   3
TORSDOF 14
ENDMDL
MODEL 2
REMARK VINA RESULT:      -5.0      2.604      4.316
REMARK  14 active torsions:
REMARK  status: ('A' for Active; 'I' for Inactive)
REMARK    1  A    between atoms: O_1  and  C_18 
REMARK    2  A    between atoms: C_3  and  C_4 
REMARK    3  A    between atoms: C_3  and  C_5 
REMARK    4  A    between atoms: C_4  and  C_6 
REMARK    5  A    between atoms: C_5  and  C_7 
REMARK    6  A    between atoms: C_6  and  C_8 
REMARK    7  A    between atoms: C_7  and  C_13 
REMARK    8  A    between atoms: C_8  and  C_15 
REMARK    9  A    between atoms: C_9  and  C_10 
REMARK   10  A    between atoms: C_9  and  C_11 
REMARK   11  A    between atoms: C_10  and  C_12 
REMARK   12  A    between atoms: C_11  and  C_14 
REMARK   13  A    between atoms: C_12  and  C_16 
REMARK   14  A    between atoms: C_15  and  C_18 
ROOT
HETATM    1  O   UNL     1      36.143  -9.026 -12.114  1.00  0.00    -0.776 OA
HETATM    2  H   UNL     1      36.450  -8.540 -11.335  1.00  0.00     0.167 HD
ENDROOT
BRANCH   1   3
HETATM    3  C   UNL     1      34.876  -8.906 -12.564  1.00  0.00     0.139 C 
HETATM    4  O   UNL     1      34.620  -8.107 -13.455  1.00  0.00    -0.650 OA
BRANCH   3   5
HETATM    5  C   UNL     1      33.800  -9.766 -11.954  1.00  0.00     0.110 C 
BRANCH   5   6
HETATM    6  C   UNL     1      33.941 -11.253 -12.311  1.00  0.00     0.010 C 
BRANCH   6   7
HETATM    7  C   UNL     1      32.574 -11.946 -12.335  1.00  0.00     0.001 C 
BRANCH   7   8
HETATM    8  C   UNL     1      32.156 -12.388 -10.928  1.00  0.00     0.000 C 
BRANCH   8   9
HETATM    9  C   UNL     1      31.615 -13.823 -10.939  1.00  0.00     0.000 C 
BRANCH   9  10
HETATM   10  C   UNL     1      32.701 -14.824 -10.527  1.00  0.00     0.004 C 
BRANCH  10  11
HETATM   11  C   UNL     1      33.843 -14.116  -9.779  1.00  0.00     0.027 C 
BRANCH  11  12
HETATM   12  C   UNL     1      34.621 -15.065  -8.900  1.00  0.00    -0.031 C 
HETATM   13  C   UNL     1      35.875 -15.500  -9.130  1.00  0.00    -0.031 C 
BRANCH  13  14
HETATM   14  C   UNL     1      36.749 -15.090 -10.289  1.00  0.00     0.027 C 
BRANCH  14  15
HETATM   15  C   UNL     1      36.868 -16.237 -11.297  1.00  0.00     0.004 C 
BRANCH  15  16
HETATM   16  C   UNL     1      35.777 -16.142 -12.370  1.00  0.00     0.000 C 
BRANCH  16  17
HETATM   17  C   UNL     1      35.940 -14.869 -13.209  1.00  0.00    -0.000 C 
BRANCH  17  18
HETATM   18  C   UNL     1      36.526 -15.192 -14.588  1.00  0.00    -0.005 C 
HETATM   19  C   UNL     1      38.051 -15.156 -14.560  1.00  0.00     0.005 C 
ENDBRANCH  17  18
ENDBRANCH  16  17
ENDBRANCH  15  16
ENDBRANCH  14  15
ENDBRANCH  13  14
ENDBRANCH  11  12
ENDBRANCH  10  11
ENDBRANCH   9  10
ENDBRANCH   8   9
ENDBRANCH   7   8
ENDBRANCH   6   7
ENDBRANCH   5   6
ENDBRANCH   3   5
ENDBRANCH   1   3
TORSDOF 14
ENDMDL
MODEL 3
REMARK VINA RESULT:      -5.0      2.256      5.548
REMARK  14 active torsions:
REMARK  status: ('A' for Active; 'I' for Inactive)
REMARK    1  A    between atoms: O_1  and  C_18 
REMARK    2  A    between atoms: C_3  and  C_4 
REMARK    3  A    between atoms: C_3  and  C_5 
REMARK    4  A    between atoms: C_4  and  C_6 
REMARK    5  A    between atoms: C_5  and  C_7 
REMARK    6  A    between atoms: C_6  and  C_8 
REMARK    7  A    between atoms: C_7  and  C_13 
REMARK    8  A    between atoms: C_8  and  C_15 
REMARK    9  A    between atoms: C_9  and  C_10 
REMARK   10  A    between atoms: C_9  and  C_11 
REMARK   11  A    between atoms: C_10  and  C_12 
REMARK   12  A    between atoms: C_11  and  C_14 
REMARK   13  A    between atoms: C_12  and  C_16 
REMARK   14  A    between atoms: C_15  and  C_18 
ROOT
HETATM    1  O   UNL     1      35.808 -15.589 -11.597  1.00  0.00    -0.776 OA
HETATM    2  H   UNL     1      35.946 -14.674 -11.314  1.00  0.00     0.167 HD
ENDROOT
BRANCH   1   3
HETATM    3  C   UNL     1      35.132 -15.882 -12.728  1.00  0.00     0.139 C 
HETATM    4  O   UNL     1      33.915 -16.010 -12.693  1.00  0.00    -0.650 OA
BRANCH   3   5
HETATM    5  C   UNL     1      35.898 -16.044 -14.015  1.00  0.00     0.110 C 
BRANCH   5   6
HETATM    6  C   UNL     1      37.262 -15.339 -13.999  1.00  0.00     0.010 C 
BRANCH   6   7
HETATM    7  C   UNL     1      37.683 -14.923 -15.414  1.00  0.00     0.001 C 
BRANCH   7   8
HETATM    8  C   UNL     1      37.268 -15.979 -16.445  1.00  0.00     0.000 C 
BRANCH   8   9
HETATM    9  C   UNL     1      37.176 -15.371 -17.849  1.00  0.00     0.000 C 
BRANCH   9  10
HETATM   10  C   UNL     1      35.779 -15.577 -18.448  1.00  0.00     0.004 C 
BRANCH  10  11
HETATM   11  C   UNL     1      34.689 -15.334 -17.392  1.00  0.00     0.027 C 
BRANCH  11  12
HETATM   12  C   UNL     1      33.361 -15.926 -17.797  1.00  0.00    -0.031 C 
HETATM   13  C   UNL     1      32.458 -15.347 -18.612  1.00  0.00    -0.031 C 
BRANCH  13  14
HETATM   14  C   UNL     1      32.623 -14.016 -19.303  1.00  0.00     0.027 C 
BRANCH  14  15
HETATM   15  C   UNL     1      31.673 -12.980 -18.695  1.00  0.00     0.004 C 
BRANCH  15  16
HETATM   16  C   UNL     1      32.131 -12.571 -17.290  1.00  0.00     0.000 C 
BRANCH  16  17
HETATM   17  C   UNL     1      31.039 -12.855 -16.251  1.00  0.00    -0.000 C 
BRANCH  17  18
HETATM   18  C   UNL     1      31.652 -13.289 -14.915  1.00  0.00    -0.005 C 
HETATM   19  C   UNL     1      31.367 -14.761 -14.631  1.00  0.00     0.005 C 
ENDBRANCH  17  18
ENDBRANCH  16  17
ENDBRANCH  15  16
ENDBRANCH  14  15
ENDBRANCH  13  14
ENDBRANCH  11  12
ENDBRANCH  10  11
ENDBRANCH   9  10
ENDBRANCH   8   9
ENDBRANCH   7   8
ENDBRANCH   6   7
ENDBRANCH   5   6
ENDBRANCH   3   5
ENDBRANCH   1   3
TORSDOF 14
ENDMDL
MODEL 4
REMARK VINA RESULT:      -5.0      4.341      7.931
REMARK  14 active torsions:
REMARK  status: ('A' for Active; 'I' for Inactive)
REMARK    1  A    between atoms: O_1  and  C_18 
REMARK    2  A    between atoms: C_3  and  C_4 
REMARK    3  A    between atoms: C_3  and  C_5 
REMARK    4  A    between atoms: C_4  and  C_6 
REMARK    5  A    between atoms: C_5  and  C_7 
REMARK    6  A    between atoms: C_6  and  C_8 
REMARK    7  A    between atoms: C_7  and  C_13 
REMARK    8  A    between atoms: C_8  and  C_15 
REMARK    9  A    between atoms: C_9  and  C_10 
REMARK   10  A    between atoms: C_9  and  C_11 
REMARK   11  A    between atoms: C_10  and  C_12 
REMARK   12  A    between atoms: C_11  and  C_14 
REMARK   13  A    between atoms: C_12  and  C_16 
REMARK   14  A    between atoms: C_15  and  C_18 
ROOT
HETATM    1  O   UNL     1      35.295 -13.262 -22.269  1.00  0.00    -0.776 OA
HETATM    2  H   UNL     1      36.021 -12.691 -21.981  1.00  0.00     0.167 HD
ENDROOT
BRANCH   1   3
HETATM    3  C   UNL     1      35.276 -14.579 -21.972  1.00  0.00     0.139 C 
HETATM    4  O   UNL     1      34.347 -15.043 -21.323  1.00  0.00    -0.650 OA
BRANCH   3   5
HETATM    5  C   UNL     1      36.407 -15.452 -22.451  1.00  0.00     0.110 C 
BRANCH   5   6
HETATM    6  C   UNL     1      37.297 -15.966 -21.309  1.00  0.00     0.010 C 
BRANCH   6   7
HETATM    7  C   UNL     1      37.674 -14.830 -20.351  1.00  0.00     0.001 C 
BRANCH   7   8
HETATM    8  C   UNL     1      37.930 -15.364 -18.937  1.00  0.00     0.000 C 
BRANCH   8   9
HETATM    9  C   UNL     1      36.765 -15.025 -18.000  1.00  0.00     0.000 C 
BRANCH   9  10
HETATM   10  C   UNL     1      35.565 -15.944 -18.257  1.00  0.00     0.004 C 
BRANCH  10  11
HETATM   11  C   UNL     1      34.417 -15.632 -17.284  1.00  0.00     0.027 C 
BRANCH  11  12
HETATM   12  C   UNL     1      33.127 -15.326 -18.004  1.00  0.00    -0.031 C 
HETATM   13  C   UNL     1      32.615 -14.098 -18.213  1.00  0.00    -0.031 C 
BRANCH  13  14
HETATM   14  C   UNL     1      33.256 -12.796 -17.799  1.00  0.00     0.027 C 
BRANCH  14  15
HETATM   15  C   UNL     1      32.323 -12.016 -16.869  1.00  0.00     0.004 C 
BRANCH  15  16
HETATM   16  C   UNL     1      31.381 -12.962 -16.114  1.00  0.00     0.000 C 
BRANCH  16  17
HETATM   17  C   UNL     1      31.594 -12.857 -14.599  1.00  0.00    -0.000 C 
BRANCH  17  18
HETATM   18  C   UNL     1      31.417 -14.223 -13.925  1.00  0.00    -0.005 C 
HETATM   19  C   UNL     1      32.585 -15.150 -14.246  1.00  0.00     0.005 C 
ENDBRANCH  17  18
ENDBRANCH  16  17
ENDBRANCH  15  16
ENDBRANCH  14  15
ENDBRANCH  13  14
ENDBRANCH  11  12
ENDBRANCH  10  11
ENDBRANCH   9  10
ENDBRANCH   8   9
ENDBRANCH   7   8
ENDBRANCH   6   7
ENDBRANCH   5   6
ENDBRANCH   3   5
ENDBRANCH   1   3
TORSDOF 14
ENDMDL
MODEL 5
REMARK VINA RESULT:      -4.9      3.729      7.277
REMARK  14 active torsions:
REMARK  status: ('A' for Active; 'I' for Inactive)
REMARK    1  A    between atoms: O_1  and  C_18 
REMARK    2  A    between atoms: C_3  and  C_4 
REMARK    3  A    between atoms: C_3  and  C_5 
REMARK    4  A    between atoms: C_4  and  C_6 
REMARK    5  A    between atoms: C_5  and  C_7 
REMARK    6  A    between atoms: C_6  and  C_8 
REMARK    7  A    between atoms: C_7  and  C_13 
REMARK    8  A    between atoms: C_8  and  C_15 
REMARK    9  A    between atoms: C_9  and  C_10 
REMARK   10  A    between atoms: C_9  and  C_11 
REMARK   11  A    between atoms: C_10  and  C_12 
REMARK   12  A    between atoms: C_11  and  C_14 
REMARK   13  A    between atoms: C_12  and  C_16 
REMARK   14  A    between atoms: C_15  and  C_18 
ROOT
HETATM    1  O   UNL     1      35.289 -13.696 -12.934  1.00  0.00    -0.776 OA
HETATM    2  H   UNL     1      35.437 -13.179 -12.129  1.00  0.00     0.167 HD
ENDROOT
BRANCH   1   3
HETATM    3  C   UNL     1      35.690 -14.982 -13.028  1.00  0.00     0.139 C 
HETATM    4  O   UNL     1      34.918 -15.830 -13.455  1.00  0.00    -0.650 OA
BRANCH   3   5
HETATM    5  C   UNL     1      37.089 -15.344 -12.602  1.00  0.00     0.110 C 
BRANCH   5   6
HETATM    6  C   UNL     1      37.134 -16.129 -11.282  1.00  0.00     0.010 C 
BRANCH   6   7
HETATM    7  C   UNL     1      36.727 -15.242 -10.100  1.00  0.00     0.001 C 
BRANCH   7   8
HETATM    8  C   UNL     1      37.789 -15.276  -8.995  1.00  0.00     0.000 C 
BRANCH   8   9
HETATM    9  C   UNL     1      37.141 -15.403  -7.611  1.00  0.00     0.000 C 
BRANCH   9  10
HETATM   10  C   UNL     1      35.688 -15.878  -7.725  1.00  0.00     0.004 C 
BRANCH  10  11
HETATM   11  C   UNL     1      34.750 -14.975  -6.908  1.00  0.00     0.027 C 
BRANCH  11  12
HETATM   12  C   UNL     1      34.640 -13.589  -7.495  1.00  0.00    -0.031 C 
HETATM   13  C   UNL     1      33.612 -12.737  -7.313  1.00  0.00    -0.031 C 
BRANCH  13  14
HETATM   14  C   UNL     1      32.397 -12.996  -6.456  1.00  0.00     0.027 C 
BRANCH  14  15
HETATM   15  C   UNL     1      31.187 -13.325  -7.335  1.00  0.00     0.004 C 
BRANCH  15  16
HETATM   16  C   UNL     1      31.564 -13.303  -8.821  1.00  0.00     0.000 C 
BRANCH  16  17
HETATM   17  C   UNL     1      31.547 -14.717  -9.415  1.00  0.00    -0.000 C 
BRANCH  17  18
HETATM   18  C   UNL     1      32.609 -14.866 -10.510  1.00  0.00    -0.005 C 
HETATM   19  C   UNL     1      31.982 -14.792 -11.898  1.00  0.00     0.005 C 
ENDBRANCH  17  18
ENDBRANCH  16  17
ENDBRANCH  15  16
ENDBRANCH  14  15
ENDBRANCH  13  14
ENDBRANCH  11  12
ENDBRANCH  10  11
ENDBRANCH   9  10
ENDBRANCH   8   9
ENDBRANCH   7   8
ENDBRANCH   6   7
ENDBRANCH   5   6
ENDBRANCH   3   5
ENDBRANCH   1   3
TORSDOF 14
ENDMDL
MODEL 6
REMARK VINA RESULT:      -4.9      1.592      2.789
REMARK  14 active torsions:
REMARK  status: ('A' for Active; 'I' for Inactive)
REMARK    1  A    between atoms: O_1  and  C_18 
REMARK    2  A    between atoms: C_3  and  C_4 
REMARK    3  A    between atoms: C_3  and  C_5 
REMARK    4  A    between atoms: C_4  and  C_6 
REMARK    5  A    between atoms: C_5  and  C_7 
REMARK    6  A    between atoms: C_6  and  C_8 
REMARK    7  A    between atoms: C_7  and  C_13 
REMARK    8  A    between atoms: C_8  and  C_15 
REMARK    9  A    between atoms: C_9  and  C_10 
REMARK   10  A    between atoms: C_9  and  C_11 
REMARK   11  A    between atoms: C_10  and  C_12 
REMARK   12  A    between atoms: C_11  and  C_14 
REMARK   13  A    between atoms: C_12  and  C_16 
REMARK   14  A    between atoms: C_15  and  C_18 
ROOT
HETATM    1  O   UNL     1      30.350 -14.103 -10.977  1.00  0.00    -0.776 OA
HETATM    2  H   UNL     1      29.671 -13.698 -10.418  1.00  0.00     0.167 HD
ENDROOT
BRANCH   1   3
HETATM    3  C   UNL     1      31.611 -13.623 -11.011  1.00  0.00     0.139 C 
HETATM    4  O   UNL     1      32.430 -14.007 -10.186  1.00  0.00    -0.650 OA
BRANCH   3   5
HETATM    5  C   UNL     1      31.983 -12.620 -12.071  1.00  0.00     0.110 C 
BRANCH   5   6
HETATM    6  C   UNL     1      32.899 -13.202 -13.158  1.00  0.00     0.010 C 
BRANCH   6   7
HETATM    7  C   UNL     1      32.584 -14.681 -13.409  1.00  0.00     0.001 C 
BRANCH   7   8
HETATM    8  C   UNL     1      33.871 -15.500 -13.559  1.00  0.00     0.000 C 
BRANCH   8   9
HETATM    9  C   UNL     1      35.082 -14.587 -13.788  1.00  0.00     0.000 C 
BRANCH   9  10
HETATM   10  C   UNL     1      36.393 -15.374 -13.680  1.00  0.00     0.004 C 
BRANCH  10  11
HETATM   11  C   UNL     1      37.168 -15.332 -15.007  1.00  0.00     0.027 C 
BRANCH  11  12
HETATM   12  C   UNL     1      36.592 -16.278 -16.033  1.00  0.00    -0.031 C 
HETATM   13  C   UNL     1      35.911 -15.918 -17.138  1.00  0.00    -0.031 C 
BRANCH  13  14
HETATM   14  C   UNL     1      35.632 -14.502 -17.577  1.00  0.00     0.027 C 
BRANCH  14  15
HETATM   15  C   UNL     1      34.209 -14.095 -17.185  1.00  0.00     0.004 C 
BRANCH  15  16
HETATM   16  C   UNL     1      33.292 -15.320 -17.089  1.00  0.00     0.000 C 
BRANCH  16  17
HETATM   17  C   UNL     1      31.831 -14.937 -17.353  1.00  0.00    -0.000 C 
BRANCH  17  18
HETATM   18  C   UNL     1      31.670 -13.415 -17.437  1.00  0.00    -0.005 C 
HETATM   19  C   UNL     1      30.880 -12.879 -16.247  1.00  0.00     0.005 C 
ENDBRANCH  17  18
ENDBRANCH  16  17
ENDBRANCH  15  16
ENDBRANCH  14  15
ENDBRANCH  13  14
ENDBRANCH  11  12
ENDBRANCH  10  11
ENDBRANCH   9  10
ENDBRANCH   8   9
ENDBRANCH   7   8
ENDBRANCH   6   7
ENDBRANCH   5   6
ENDBRANCH   3   5
ENDBRANCH   1   3
TORSDOF 14
ENDMDL
MODEL 7
REMARK VINA RESULT:      -4.9      2.313      4.648
REMARK  14 active torsions:
REMARK  status: ('A' for Active; 'I' for Inactive)
REMARK    1  A    between atoms: O_1  and  C_18 
REMARK    2  A    between atoms: C_3  and  C_4 
REMARK    3  A    between atoms: C_3  and  C_5 
REMARK    4  A    between atoms: C_4  and  C_6 
REMARK    5  A    between atoms: C_5  and  C_7 
REMARK    6  A    between atoms: C_6  and  C_8 
REMARK    7  A    between atoms: C_7  and  C_13 
REMARK    8  A    between atoms: C_8  and  C_15 
REMARK    9  A    between atoms: C_9  and  C_10 
REMARK   10  A    between atoms: C_9  and  C_11 
REMARK   11  A    between atoms: C_10  and  C_12 
REMARK   12  A    between atoms: C_11  and  C_14 
REMARK   13  A    between atoms: C_12  and  C_16 
REMARK   14  A    between atoms: C_15  and  C_18 
ROOT
HETATM    1  O   UNL     1      36.097  -9.350 -12.311  1.00  0.00    -0.776 OA
HETATM    2  H   UNL     1      36.585  -8.876 -11.622  1.00  0.00     0.167 HD
ENDROOT
BRANCH   1   3
HETATM    3  C   UNL     1      34.811  -9.051 -12.593  1.00  0.00     0.139 C 
HETATM    4  O   UNL     1      34.554  -8.099 -13.319  1.00  0.00    -0.650 OA
BRANCH   3   5
HETATM    5  C   UNL     1      33.717  -9.903 -12.005  1.00  0.00     0.110 C 
BRANCH   5   6
HETATM    6  C   UNL     1      33.725 -11.345 -12.534  1.00  0.00     0.010 C 
BRANCH   6   7
HETATM    7  C   UNL     1      32.550 -12.147 -11.961  1.00  0.00     0.001 C 
BRANCH   7   8
HETATM    8  C   UNL     1      33.025 -13.492 -11.399  1.00  0.00     0.000 C 
BRANCH   8   9
HETATM    9  C   UNL     1      31.864 -14.490 -11.304  1.00  0.00     0.000 C 
BRANCH   9  10
HETATM   10  C   UNL     1      31.377 -14.902 -12.698  1.00  0.00     0.004 C 
BRANCH  10  11
HETATM   11  C   UNL     1      32.508 -15.568 -13.499  1.00  0.00     0.027 C 
BRANCH  11  12
HETATM   12  C   UNL     1      32.984 -14.701 -14.640  1.00  0.00    -0.031 C 
HETATM   13  C   UNL     1      34.220 -14.717 -15.176  1.00  0.00    -0.031 C 
BRANCH  13  14
HETATM   14  C   UNL     1      35.346 -15.632 -14.763  1.00  0.00     0.027 C 
BRANCH  14  15
HETATM   15  C   UNL     1      36.142 -15.009 -13.612  1.00  0.00     0.004 C 
BRANCH  15  16
HETATM   16  C   UNL     1      35.831 -15.709 -12.284  1.00  0.00     0.000 C 
BRANCH  16  17
HETATM   17  C   UNL     1      37.117 -16.004 -11.503  1.00  0.00    -0.000 C 
BRANCH  17  18
HETATM   18  C   UNL     1      36.952 -15.646 -10.021  1.00  0.00    -0.005 C 
HETATM   19  C   UNL     1      38.260 -15.127  -9.432  1.00  0.00     0.005 C 
ENDBRANCH  17  18
ENDBRANCH  16  17
ENDBRANCH  15  16
ENDBRANCH  14  15
ENDBRANCH  13  14
ENDBRANCH  11  12
ENDBRANCH  10  11
ENDBRANCH   9  10
ENDBRANCH   8   9
ENDBRANCH   7   8
ENDBRANCH   6   7
ENDBRANCH   5   6
ENDBRANCH   3   5
ENDBRANCH   1   3
TORSDOF 14
ENDMDL
MODEL 8
REMARK VINA RESULT:      -4.9      2.929      6.297
REMARK  14 active torsions:
REMARK  status: ('A' for Active; 'I' for Inactive)
REMARK    1  A    between atoms: O_1  and  C_18 
REMARK    2  A    between atoms: C_3  and  C_4 
REMARK    3  A    between atoms: C_3  and  C_5 
REMARK    4  A    between atoms: C_4  and  C_6 
REMARK    5  A    between atoms: C_5  and  C_7 
REMARK    6  A    between atoms: C_6  and  C_8 
REMARK    7  A    between atoms: C_7  and  C_13 
REMARK    8  A    between atoms: C_8  and  C_15 
REMARK    9  A    between atoms: C_9  and  C_10 
REMARK   10  A    between atoms: C_9  and  C_11 
REMARK   11  A    between atoms: C_10  and  C_12 
REMARK   12  A    between atoms: C_11  and  C_14 
REMARK   13  A    between atoms: C_12  and  C_16 
REMARK   14  A    between atoms: C_15  and  C_18 
ROOT
HETATM    1  O   UNL     1      38.080 -15.057 -18.480  1.00  0.00    -0.776 OA
HETATM    2  H   UNL     1      38.565 -15.856 -18.736  1.00  0.00     0.167 HD
ENDROOT
BRANCH   1   3
HETATM    3  C   UNL     1      37.055 -15.106 -17.604  1.00  0.00     0.139 C 
HETATM    4  O   UNL     1      37.174 -14.591 -16.499  1.00  0.00    -0.650 OA
BRANCH   3   5
HETATM    5  C   UNL     1      35.780 -15.799 -18.008  1.00  0.00     0.110 C 
BRANCH   5   6
HETATM    6  C   UNL     1      34.620 -15.546 -17.033  1.00  0.00     0.010 C 
BRANCH   6   7
HETATM    7  C   UNL     1      33.290 -16.025 -17.624  1.00  0.00     0.001 C 
BRANCH   7   8
HETATM    8  C   UNL     1      32.645 -14.933 -18.485  1.00  0.00     0.000 C 
BRANCH   8   9
HETATM    9  C   UNL     1      31.370 -14.393 -17.825  1.00  0.00     0.000 C 
BRANCH   9  10
HETATM   10  C   UNL     1      31.537 -12.923 -17.424  1.00  0.00     0.004 C 
BRANCH  10  11
HETATM   11  C   UNL     1      31.191 -12.717 -15.940  1.00  0.00     0.027 C 
BRANCH  11  12
HETATM   12  C   UNL     1      32.422 -12.688 -15.067  1.00  0.00    -0.031 C 
HETATM   13  C   UNL     1      32.866 -13.703 -14.300  1.00  0.00    -0.031 C 
BRANCH  13  14
HETATM   14  C   UNL     1      32.236 -15.071 -14.202  1.00  0.00     0.027 C 
BRANCH  14  15
HETATM   15  C   UNL     1      32.699 -15.777 -12.924  1.00  0.00     0.004 C 
BRANCH  15  16
HETATM   16  C   UNL     1      34.074 -15.266 -12.479  1.00  0.00     0.000 C 
BRANCH  16  17
HETATM   17  C   UNL     1      35.195 -16.162 -13.022  1.00  0.00    -0.000 C 
BRANCH  17  18
HETATM   18  C   UNL     1      36.507 -15.380 -13.153  1.00  0.00    -0.005 C 
HETATM   19  C   UNL     1      36.995 -14.892 -11.792  1.00  0.00     0.005 C 
ENDBRANCH  17  18
ENDBRANCH  16  17
ENDBRANCH  15  16
ENDBRANCH  14  15
ENDBRANCH  13  14
ENDBRANCH  11  12
ENDBRANCH  10  11
ENDBRANCH   9  10
ENDBRANCH   8   9
ENDBRANCH   7   8
ENDBRANCH   6   7
ENDBRANCH   5   6
ENDBRANCH   3   5
ENDBRANCH   1   3
TORSDOF 14
ENDMDL
MODEL 9
REMARK VINA RESULT:      -4.8      3.089      7.259
REMARK  14 active torsions:
REMARK  status: ('A' for Active; 'I' for Inactive)
REMARK    1  A    between atoms: O_1  and  C_18 
REMARK    2  A    between atoms: C_3  and  C_4 
REMARK    3  A    between atoms: C_3  and  C_5 
REMARK    4  A    between atoms: C_4  and  C_6 
REMARK    5  A    between atoms: C_5  and  C_7 
REMARK    6  A    between atoms: C_6  and  C_8 
REMARK    7  A    between atoms: C_7  and  C_13 
REMARK    8  A    between atoms: C_8  and  C_15 
REMARK    9  A    between atoms: C_9  and  C_10 
REMARK   10  A    between atoms: C_9  and  C_11 
REMARK   11  A    between atoms: C_10  and  C_12 
REMARK   12  A    between atoms: C_11  and  C_14 
REMARK   13  A    between atoms: C_12  and  C_16 
REMARK   14  A    between atoms: C_15  and  C_18 
ROOT
HETATM    1  O   UNL     1      38.440 -14.761  -9.450  1.00  0.00    -0.776 OA
HETATM    2  H   UNL     1      38.664 -13.897  -9.823  1.00  0.00     0.167 HD
ENDROOT
BRANCH   1   3
HETATM    3  C   UNL     1      37.225 -15.318  -9.643  1.00  0.00     0.139 C 
HETATM    4  O   UNL     1      36.441 -15.406  -8.707  1.00  0.00    -0.650 OA
BRANCH   3   5
HETATM    5  C   UNL     1      36.862 -15.820 -11.016  1.00  0.00     0.110 C 
BRANCH   5   6
HETATM    6  C   UNL     1      35.489 -15.325 -11.495  1.00  0.00     0.010 C 
BRANCH   6   7
HETATM    7  C   UNL     1      35.610 -14.563 -12.820  1.00  0.00     0.001 C 
BRANCH   7   8
HETATM    8  C   UNL     1      34.692 -15.167 -13.889  1.00  0.00     0.000 C 
BRANCH   8   9
HETATM    9  C   UNL     1      33.270 -15.358 -13.348  1.00  0.00     0.000 C 
BRANCH   9  10
HETATM   10  C   UNL     1      32.311 -14.316 -13.937  1.00  0.00     0.004 C 
BRANCH  10  11
HETATM   11  C   UNL     1      31.451 -13.678 -12.834  1.00  0.00     0.027 C 
BRANCH  11  12
HETATM   12  C   UNL     1      32.121 -12.477 -12.212  1.00  0.00    -0.031 C 
HETATM   13  C   UNL     1      32.643 -12.422 -10.972  1.00  0.00    -0.031 C 
BRANCH  13  14
HETATM   14  C   UNL     1      32.691 -13.565  -9.987  1.00  0.00     0.027 C 
BRANCH  14  15
HETATM   15  C   UNL     1      31.369 -13.659  -9.219  1.00  0.00     0.004 C 
BRANCH  15  16
HETATM   16  C   UNL     1      31.611 -14.028  -7.750  1.00  0.00     0.000 C 
BRANCH  16  17
HETATM   17  C   UNL     1      31.186 -12.887  -6.818  1.00  0.00    -0.000 C 
BRANCH  17  18
HETATM   18  C   UNL     1      32.395 -12.307  -6.075  1.00  0.00    -0.005 C 
HETATM   19  C   UNL     1      33.128 -11.280  -6.933  1.00  0.00     0.005 C 
ENDBRANCH  17  18
ENDBRANCH  16  17
ENDBRANCH  15  16
ENDBRANCH  14  15
ENDBRANCH  13  14
ENDBRANCH  11  12
ENDBRANCH  10  11
ENDBRANCH   9  10
ENDBRANCH   8   9
ENDBRANCH   7   8
ENDBRANCH   6   7
ENDBRANCH   5   6
ENDBRANCH   3   5
ENDBRANCH   1   3
TORSDOF 14
ENDMDL
MODEL 10
REMARK VINA RESULT:      -4.8      4.716      7.633
REMARK  14 active torsions:
REMARK  status: ('A' for Active; 'I' for Inactive)
REMARK    1  A    between atoms: O_1  and  C_18 
REMARK    2  A    between atoms: C_3  and  C_4 
REMARK    3  A    between atoms: C_3  and  C_5 
REMARK    4  A    between atoms: C_4  and  C_6 
REMARK    5  A    between atoms: C_5  and  C_7 
REMARK    6  A    between atoms: C_6  and  C_8 
REMARK    7  A    between atoms: C_7  and  C_13 
REMARK    8  A    between atoms: C_8  and  C_15 
REMARK    9  A    between atoms: C_9  and  C_10 
REMARK   10  A    between atoms: C_9  and  C_11 
REMARK   11  A    between atoms: C_10  and  C_12 
REMARK   12  A    between atoms: C_11  and  C_14 
REMARK   13  A    between atoms: C_12  and  C_16 
REMARK   14  A    between atoms: C_15  and  C_18 
ROOT
HETATM    1  O   UNL     1      35.098 -12.876 -22.198  1.00  0.00    -0.776 OA
HETATM    2  H   UNL     1      35.985 -12.494 -22.125  1.00  0.00     0.167 HD
ENDROOT
BRANCH   1   3
HETATM    3  C   UNL     1      34.913 -14.209 -22.307  1.00  0.00     0.139 C 
HETATM    4  O   UNL     1      34.541 -14.686 -23.370  1.00  0.00    -0.650 OA
BRANCH   3   5
HETATM    5  C   UNL     1      35.173 -15.082 -21.107  1.00  0.00     0.110 C 
BRANCH   5   6
HETATM    6  C   UNL     1      36.596 -15.661 -21.079  1.00  0.00     0.010 C 
BRANCH   6   7
HETATM    7  C   UNL     1      37.298 -15.332 -19.757  1.00  0.00     0.001 C 
BRANCH   7   8
HETATM    8  C   UNL     1      36.283 -15.171 -18.620  1.00  0.00     0.000 C 
BRANCH   8   9
HETATM    9  C   UNL     1      36.893 -15.581 -17.274  1.00  0.00     0.000 C 
BRANCH   9  10
HETATM   10  C   UNL     1      35.981 -15.179 -16.110  1.00  0.00     0.004 C 
BRANCH  10  11
HETATM   11  C   UNL     1      34.749 -14.412 -16.619  1.00  0.00     0.027 C 
BRANCH  11  12
HETATM   12  C   UNL     1      33.734 -14.175 -15.527  1.00  0.00    -0.031 C 
HETATM   13  C   UNL     1      32.717 -13.294 -15.577  1.00  0.00    -0.031 C 
BRANCH  13  14
HETATM   14  C   UNL     1      32.378 -12.408 -16.750  1.00  0.00     0.027 C 
BRANCH  14  15
HETATM   15  C   UNL     1      31.402 -13.121 -17.690  1.00  0.00     0.004 C 
BRANCH  15  16
HETATM   16  C   UNL     1      32.089 -13.518 -19.001  1.00  0.00     0.000 C 
BRANCH  16  17
HETATM   17  C   UNL     1      31.396 -14.726 -19.643  1.00  0.00    -0.000 C 
BRANCH  17  18
HETATM   18  C   UNL     1      31.281 -14.550 -21.161  1.00  0.00    -0.005 C 
HETATM   19  C   UNL     1      31.131 -13.079 -21.535  1.00  0.00     0.005 C 
ENDBRANCH  17  18
ENDBRANCH  16  17
ENDBRANCH  15  16
ENDBRANCH  14  15
ENDBRANCH  13  14
ENDBRANCH  11  12
ENDBRANCH  10  11
ENDBRANCH   9  10
ENDBRANCH   8   9
ENDBRANCH   7   8
ENDBRANCH   6   7
ENDBRANCH   5   6
ENDBRANCH   3   5
ENDBRANCH   1   3
TORSDOF 14
ENDMDL
MODEL 11
REMARK VINA RESULT:      -4.8      4.289      7.074
REMARK  14 active torsions:
REMARK  status: ('A' for Active; 'I' for Inactive)
REMARK    1  A    between atoms: O_1  and  C_18 
REMARK    2  A    between atoms: C_3  and  C_4 
REMARK    3  A    between atoms: C_3  and  C_5 
REMARK    4  A    between atoms: C_4  and  C_6 
REMARK    5  A    between atoms: C_5  and  C_7 
REMARK    6  A    between atoms: C_6  and  C_8 
REMARK    7  A    between atoms: C_7  and  C_13 
REMARK    8  A    between atoms: C_8  and  C_15 
REMARK    9  A    between atoms: C_9  and  C_10 
REMARK   10  A    between atoms: C_9  and  C_11 
REMARK   11  A    between atoms: C_10  and  C_12 
REMARK   12  A    between atoms: C_11  and  C_14 
REMARK   13  A    between atoms: C_12  and  C_16 
REMARK   14  A    between atoms: C_15  and  C_18 
ROOT
HETATM    1  O   UNL     1      34.353 -11.958 -17.418  1.00  0.00    -0.776 OA
HETATM    2  H   UNL     1      35.132 -12.336 -17.851  1.00  0.00     0.167 HD
ENDROOT
BRANCH   1   3
HETATM    3  C   UNL     1      33.108 -12.184 -17.888  1.00  0.00     0.139 C 
HETATM    4  O   UNL     1      32.151 -12.123 -17.128  1.00  0.00    -0.650 OA
BRANCH   3   5
HETATM    5  C   UNL     1      32.926 -12.506 -19.349  1.00  0.00     0.110 C 
BRANCH   5   6
HETATM    6  C   UNL     1      31.608 -13.238 -19.645  1.00  0.00     0.010 C 
BRANCH   6   7
HETATM    7  C   UNL     1      30.931 -12.666 -20.896  1.00  0.00     0.001 C 
BRANCH   7   8
HETATM    8  C   UNL     1      31.360 -13.432 -22.153  1.00  0.00     0.000 C 
BRANCH   8   9
HETATM    9  C   UNL     1      31.777 -14.867 -21.808  1.00  0.00     0.000 C 
BRANCH   9  10
HETATM   10  C   UNL     1      32.384 -15.572 -23.027  1.00  0.00     0.004 C 
BRANCH  10  11
HETATM   11  C   UNL     1      33.866 -15.902 -22.787  1.00  0.00     0.027 C 
BRANCH  11  12
HETATM   12  C   UNL     1      34.694 -14.664 -22.544  1.00  0.00    -0.031 C 
HETATM   13  C   UNL     1      35.805 -14.597 -21.785  1.00  0.00    -0.031 C 
BRANCH  13  14
HETATM   14  C   UNL     1      36.452 -15.757 -21.069  1.00  0.00     0.027 C 
BRANCH  14  15
HETATM   15  C   UNL     1      36.616 -15.436 -19.580  1.00  0.00     0.004 C 
BRANCH  15  16
HETATM   16  C   UNL     1      35.254 -15.353 -18.881  1.00  0.00     0.000 C 
BRANCH  16  17
HETATM   17  C   UNL     1      35.373 -15.723 -17.398  1.00  0.00    -0.000 C 
BRANCH  17  18
HETATM   18  C   UNL     1      36.840 -15.918 -16.997  1.00  0.00    -0.005 C 
HETATM   19  C   UNL     1      37.289 -14.841 -16.014  1.00  0.00     0.005 C 
ENDBRANCH  17  18
ENDBRANCH  16  17
ENDBRANCH  15  16
ENDBRANCH  14  15
ENDBRANCH  13  14
ENDBRANCH  11  12
ENDBRANCH  10  11
ENDBRANCH   9  10
ENDBRANCH   8   9
ENDBRANCH   7   8
ENDBRANCH   6   7
ENDBRANCH   5   6
ENDBRANCH   3   5
ENDBRANCH   1   3
TORSDOF 14
ENDMDL
MODEL 12
REMARK VINA RESULT:      -4.8      2.683      6.670
REMARK  14 active torsions:
REMARK  status: ('A' for Active; 'I' for Inactive)
REMARK    1  A    between atoms: O_1  and  C_18 
REMARK    2  A    between atoms: C_3  and  C_4 
REMARK    3  A    between atoms: C_3  and  C_5 
REMARK    4  A    between atoms: C_4  and  C_6 
REMARK    5  A    between atoms: C_5  and  C_7 
REMARK    6  A    between atoms: C_6  and  C_8 
REMARK    7  A    between atoms: C_7  and  C_13 
REMARK    8  A    between atoms: C_8  and  C_15 
REMARK    9  A    between atoms: C_9  and  C_10 
REMARK   10  A    between atoms: C_9  and  C_11 
REMARK   11  A    between atoms: C_10  and  C_12 
REMARK   12  A    between atoms: C_11  and  C_14 
REMARK   13  A    between atoms: C_12  and  C_16 
REMARK   14  A    between atoms: C_15  and  C_18 
ROOT
HETATM    1  O   UNL     1      37.811 -14.177 -16.731  1.00  0.00    -0.776 OA
HETATM    2  H   UNL     1      37.998 -13.228 -16.686  1.00  0.00     0.167 HD
ENDROOT
BRANCH   1   3
HETATM    3  C   UNL     1      37.619 -14.910 -15.614  1.00  0.00     0.139 C 
HETATM    4  O   UNL     1      38.415 -14.827 -14.688  1.00  0.00    -0.650 OA
BRANCH   3   5
HETATM    5  C   UNL     1      36.419 -15.817 -15.533  1.00  0.00     0.110 C 
BRANCH   5   6
HETATM    6  C   UNL     1      35.842 -16.179 -16.910  1.00  0.00     0.010 C 
BRANCH   6   7
HETATM    7  C   UNL     1      34.541 -15.414 -17.179  1.00  0.00     0.001 C 
BRANCH   7   8
HETATM    8  C   UNL     1      34.343 -15.176 -18.680  1.00  0.00     0.000 C 
BRANCH   8   9
HETATM    9  C   UNL     1      32.989 -14.512 -18.959  1.00  0.00     0.000 C 
BRANCH   9  10
HETATM   10  C   UNL     1      33.066 -12.995 -18.753  1.00  0.00     0.004 C 
BRANCH  10  11
HETATM   11  C   UNL     1      32.135 -12.548 -17.614  1.00  0.00     0.027 C 
BRANCH  11  12
HETATM   12  C   UNL     1      31.142 -13.620 -17.237  1.00  0.00    -0.031 C 
HETATM   13  C   UNL     1      30.941 -14.106 -15.996  1.00  0.00    -0.031 C 
BRANCH  13  14
HETATM   14  C   UNL     1      31.645 -13.639 -14.746  1.00  0.00     0.027 C 
BRANCH  14  15
HETATM   15  C   UNL     1      32.100 -14.842 -13.913  1.00  0.00     0.004 C 
BRANCH  15  16
HETATM   16  C   UNL     1      32.134 -14.496 -12.420  1.00  0.00     0.000 C 
BRANCH  16  17
HETATM   17  C   UNL     1      31.114 -13.401 -12.085  1.00  0.00    -0.000 C 
BRANCH  17  18
HETATM   18  C   UNL     1      31.719 -12.358 -11.138  1.00  0.00    -0.005 C 
HETATM   19  C   UNL     1      32.930 -11.678 -11.771  1.00  0.00     0.005 C 
ENDBRANCH  17  18
ENDBRANCH  16  17
ENDBRANCH  15  16
ENDBRANCH  14  15
ENDBRANCH  13  14
ENDBRANCH  11  12
ENDBRANCH  10  11
ENDBRANCH   9  10
ENDBRANCH   8   9
ENDBRANCH   7   8
ENDBRANCH   6   7
ENDBRANCH   5   6
ENDBRANCH   3   5
ENDBRANCH   1   3
TORSDOF 14
ENDMDL
MODEL 13
REMARK VINA RESULT:      -4.8      2.884      6.612
REMARK  14 active torsions:
REMARK  status: ('A' for Active; 'I' for Inactive)
REMARK    1  A    between atoms: O_1  and  C_18 
REMARK    2  A    between atoms: C_3  and  C_4 
REMARK    3  A    between atoms: C_3  and  C_5 
REMARK    4  A    between atoms: C_4  and  C_6 
REMARK    5  A    between atoms: C_5  and  C_7 
REMARK    6  A    between atoms: C_6  and  C_8 
REMARK    7  A    between atoms: C_7  and  C_13 
REMARK    8  A    between atoms: C_8  and  C_15 
REMARK    9  A    between atoms: C_9  and  C_10 
REMARK   10  A    between atoms: C_9  and  C_11 
REMARK   11  A    between atoms: C_10  and  C_12 
REMARK   12  A    between atoms: C_11  and  C_14 
REMARK   13  A    between atoms: C_12  and  C_16 
REMARK   14  A    between atoms: C_15  and  C_18 
ROOT
HETATM    1  O   UNL     1      36.435 -13.934 -16.698  1.00  0.00    -0.776 OA
HETATM    2  H   UNL     1      36.769 -13.970 -15.790  1.00  0.00     0.167 HD
ENDROOT
BRANCH   1   3
HETATM    3  C   UNL     1      36.509 -15.004 -17.517  1.00  0.00     0.139 C 
HETATM    4  O   UNL     1      37.497 -15.727 -17.486  1.00  0.00    -0.650 OA
BRANCH   3   5
HETATM    5  C   UNL     1      35.365 -15.285 -18.456  1.00  0.00     0.110 C 
BRANCH   5   6
HETATM    6  C   UNL     1      34.122 -15.839 -17.744  1.00  0.00     0.010 C 
BRANCH   6   7
HETATM    7  C   UNL     1      32.855 -15.582 -18.569  1.00  0.00     0.001 C 
BRANCH   7   8
HETATM    8  C   UNL     1      33.026 -14.354 -19.471  1.00  0.00     0.000 C 
BRANCH   8   9
HETATM    9  C   UNL     1      32.268 -13.146 -18.907  1.00  0.00     0.000 C 
BRANCH   9  10
HETATM   10  C   UNL     1      33.217 -12.201 -18.159  1.00  0.00     0.004 C 
BRANCH  10  11
HETATM   11  C   UNL     1      33.168 -12.461 -16.645  1.00  0.00     0.027 C 
BRANCH  11  12
HETATM   12  C   UNL     1      31.812 -12.155 -16.057  1.00  0.00    -0.031 C 
HETATM   13  C   UNL     1      30.929 -13.064 -15.602  1.00  0.00    -0.031 C 
BRANCH  13  14
HETATM   14  C   UNL     1      31.147 -14.556 -15.557  1.00  0.00     0.027 C 
BRANCH  14  15
HETATM   15  C   UNL     1      31.781 -14.960 -14.223  1.00  0.00     0.004 C 
BRANCH  15  16
HETATM   16  C   UNL     1      31.316 -14.038 -13.090  1.00  0.00     0.000 C 
BRANCH  16  17
HETATM   17  C   UNL     1      32.416 -13.862 -12.036  1.00  0.00    -0.000 C 
BRANCH  17  18
HETATM   18  C   UNL     1      33.576 -13.025 -12.588  1.00  0.00    -0.005 C 
HETATM   19  C   UNL     1      34.888 -13.801 -12.531  1.00  0.00     0.005 C 
ENDBRANCH  17  18
ENDBRANCH  16  17
ENDBRANCH  15  16
ENDBRANCH  14  15
ENDBRANCH  13  14
ENDBRANCH  11  12
ENDBRANCH  10  11
ENDBRANCH   9  10
ENDBRANCH   8   9
ENDBRANCH   7   8
ENDBRANCH   6   7
ENDBRANCH   5   6
ENDBRANCH   3   5
ENDBRANCH   1   3
TORSDOF 14
ENDMDL
MODEL 14
REMARK VINA RESULT:      -4.8      2.800      6.280
REMARK  14 active torsions:
REMARK  status: ('A' for Active; 'I' for Inactive)
REMARK    1  A    between atoms: O_1  and  C_18 
REMARK    2  A    between atoms: C_3  and  C_4 
REMARK    3  A    between atoms: C_3  and  C_5 
REMARK    4  A    between atoms: C_4  and  C_6 
REMARK    5  A    between atoms: C_5  and  C_7 
REMARK    6  A    between atoms: C_6  and  C_8 
REMARK    7  A    between atoms: C_7  and  C_13 
REMARK    8  A    between atoms: C_8  and  C_15 
REMARK    9  A    between atoms: C_9  and  C_10 
REMARK   10  A    between atoms: C_9  and  C_11 
REMARK   11  A    between atoms: C_10  and  C_12 
REMARK   12  A    between atoms: C_11  and  C_14 
REMARK   13  A    between atoms: C_12  and  C_16 
REMARK   14  A    between atoms: C_15  and  C_18 
ROOT
HETATM    1  O   UNL     1      37.293 -15.783  -7.218  1.00  0.00    -0.776 OA
HETATM    2  H   UNL     1      37.171 -16.743  -7.171  1.00  0.00     0.167 HD
ENDROOT
BRANCH   1   3
HETATM    3  C   UNL     1      36.794 -15.059  -8.241  1.00  0.00     0.139 C 
HETATM    4  O   UNL     1      35.879 -14.271  -8.039  1.00  0.00    -0.650 OA
BRANCH   3   5
HETATM    5  C   UNL     1      37.379 -15.238  -9.617  1.00  0.00     0.110 C 
BRANCH   5   6
HETATM    6  C   UNL     1      36.347 -15.057 -10.741  1.00  0.00     0.010 C 
BRANCH   6   7
HETATM    7  C   UNL     1      36.500 -16.146 -11.809  1.00  0.00     0.001 C 
BRANCH   7   8
HETATM    8  C   UNL     1      35.266 -16.205 -12.716  1.00  0.00     0.000 C 
BRANCH   8   9
HETATM    9  C   UNL     1      35.536 -15.514 -14.058  1.00  0.00     0.000 C 
BRANCH   9  10
HETATM   10  C   UNL     1      34.380 -14.583 -14.440  1.00  0.00     0.004 C 
BRANCH  10  11
HETATM   11  C   UNL     1      33.025 -15.212 -14.075  1.00  0.00     0.027 C 
BRANCH  11  12
HETATM   12  C   UNL     1      31.864 -14.325 -14.455  1.00  0.00    -0.031 C 
HETATM   13  C   UNL     1      31.417 -13.269 -13.747  1.00  0.00    -0.031 C 
BRANCH  13  14
HETATM   14  C   UNL     1      32.020 -12.753 -12.464  1.00  0.00     0.027 C 
BRANCH  14  15
HETATM   15  C   UNL     1      31.082 -13.034 -11.286  1.00  0.00     0.004 C 
BRANCH  15  16
HETATM   16  C   UNL     1      31.191 -14.494 -10.832  1.00  0.00     0.000 C 
BRANCH  16  17
HETATM   17  C   UNL     1      32.640 -14.853 -10.479  1.00  0.00    -0.000 C 
BRANCH  17  18
HETATM   18  C   UNL     1      32.756 -15.286  -9.013  1.00  0.00    -0.005 C 
HETATM   19  C   UNL     1      31.382 -15.386  -8.358  1.00  0.00     0.005 C 
ENDBRANCH  17  18
ENDBRANCH  16  17
ENDBRANCH  15  16
ENDBRANCH  14  15
ENDBRANCH  13  14
ENDBRANCH  11  12
ENDBRANCH  10  11
ENDBRANCH   9  10
ENDBRANCH   8   9
ENDBRANCH   7   8
ENDBRANCH   6   7
ENDBRANCH   5   6
ENDBRANCH   3   5
ENDBRANCH   1   3
TORSDOF 14
ENDMDL
MODEL 15
REMARK VINA RESULT:      -4.7      2.942      5.164
REMARK  14 active torsions:
REMARK  status: ('A' for Active; 'I' for Inactive)
REMARK    1  A    between atoms: O_1  and  C_18 
REMARK    2  A    between atoms: C_3  and  C_4 
REMARK    3  A    between atoms: C_3  and  C_5 
REMARK    4  A    between atoms: C_4  and  C_6 
REMARK    5  A    between atoms: C_5  and  C_7 
REMARK    6  A    between atoms: C_6  and  C_8 
REMARK    7  A    between atoms: C_7  and  C_13 
REMARK    8  A    between atoms: C_8  and  C_15 
REMARK    9  A    between atoms: C_9  and  C_10 
REMARK   10  A    between atoms: C_9  and  C_11 
REMARK   11  A    between atoms: C_10  and  C_12 
REMARK   12  A    between atoms: C_11  and  C_14 
REMARK   13  A    between atoms: C_12  and  C_16 
REMARK   14  A    between atoms: C_15  and  C_18 
ROOT
HETATM    1  O   UNL     1      33.636 -11.819  -8.427  1.00  0.00    -0.776 OA
HETATM    2  H   UNL     1      33.116 -11.576  -9.207  1.00  0.00     0.167 HD
ENDROOT
BRANCH   1   3
HETATM    3  C   UNL     1      33.280 -11.416  -7.190  1.00  0.00     0.139 C 
HETATM    4  O   UNL     1      33.846 -10.461  -6.674  1.00  0.00    -0.650 OA
BRANCH   3   5
HETATM    5  C   UNL     1      32.184 -12.156  -6.467  1.00  0.00     0.110 C 
BRANCH   5   6
HETATM    6  C   UNL     1      31.293 -12.982  -7.407  1.00  0.00     0.010 C 
BRANCH   6   7
HETATM    7  C   UNL     1      31.172 -14.430  -6.919  1.00  0.00     0.001 C 
BRANCH   7   8
HETATM    8  C   UNL     1      31.370 -15.419  -8.073  1.00  0.00     0.000 C 
BRANCH   8   9
HETATM    9  C   UNL     1      32.821 -15.401  -8.570  1.00  0.00     0.000 C 
BRANCH   9  10
HETATM   10  C   UNL     1      32.890 -15.027 -10.056  1.00  0.00     0.004 C 
BRANCH  10  11
HETATM   11  C   UNL     1      31.484 -14.757 -10.618  1.00  0.00     0.027 C 
BRANCH  11  12
HETATM   12  C   UNL     1      31.316 -13.326 -11.066  1.00  0.00    -0.031 C 
HETATM   13  C   UNL     1      31.453 -12.875 -12.328  1.00  0.00    -0.031 C 
BRANCH  13  14
HETATM   14  C   UNL     1      31.762 -13.725 -13.536  1.00  0.00     0.027 C 
BRANCH  14  15
HETATM   15  C   UNL     1      33.231 -13.560 -13.940  1.00  0.00     0.004 C 
BRANCH  15  16
HETATM   16  C   UNL     1      33.685 -14.710 -14.846  1.00  0.00     0.000 C 
BRANCH  16  17
HETATM   17  C   UNL     1      34.964 -15.363 -14.307  1.00  0.00    -0.000 C 
BRANCH  17  18
HETATM   18  C   UNL     1      34.745 -15.913 -12.893  1.00  0.00    -0.005 C 
HETATM   19  C   UNL     1      36.071 -16.091 -12.161  1.00  0.00     0.005 C 
ENDBRANCH  17  18
ENDBRANCH  16  17
ENDBRANCH  15  16
ENDBRANCH  14  15
ENDBRANCH  13  14
ENDBRANCH  11  12
ENDBRANCH  10  11
ENDBRANCH   9  10
ENDBRANCH   8   9
ENDBRANCH   7   8
ENDBRANCH   6   7
ENDBRANCH   5   6
ENDBRANCH   3   5
ENDBRANCH   1   3
TORSDOF 14
ENDMDL
MODEL 16
REMARK VINA RESULT:      -4.7      4.334      8.202
REMARK  14 active torsions:
REMARK  status: ('A' for Active; 'I' for Inactive)
REMARK    1  A    between atoms: O_1  and  C_18 
REMARK    2  A    between atoms: C_3  and  C_4 
REMARK    3  A    between atoms: C_3  and  C_5 
REMARK    4  A    between atoms: C_4  and  C_6 
REMARK    5  A    between atoms: C_5  and  C_7 
REMARK    6  A    between atoms: C_6  and  C_8 
REMARK    7  A    between atoms: C_7  and  C_13 
REMARK    8  A    between atoms: C_8  and  C_15 
REMARK    9  A    between atoms: C_9  and  C_10 
REMARK   10  A    between atoms: C_9  and  C_11 
REMARK   11  A    between atoms: C_10  and  C_12 
REMARK   12  A    between atoms: C_11  and  C_14 
REMARK   13  A    between atoms: C_12  and  C_16 
REMARK   14  A    between atoms: C_15  and  C_18 
ROOT
HETATM    1  O   UNL     1      36.293 -16.582 -16.505  1.00  0.00    -0.776 OA
HETATM    2  H   UNL     1      35.931 -16.575 -15.608  1.00  0.00     0.167 HD
ENDROOT
BRANCH   1   3
HETATM    3  C   UNL     1      35.612 -16.053 -17.543  1.00  0.00     0.139 C 
HETATM    4  O   UNL     1      34.403 -16.224 -17.627  1.00  0.00    -0.650 OA
BRANCH   3   5
HETATM    5  C   UNL     1      36.361 -15.258 -18.580  1.00  0.00     0.110 C 
BRANCH   5   6
HETATM    6  C   UNL     1      35.589 -15.107 -19.900  1.00  0.00     0.010 C 
BRANCH   6   7
HETATM    7  C   UNL     1      36.281 -15.873 -21.033  1.00  0.00     0.001 C 
BRANCH   7   8
HETATM    8  C   UNL     1      35.332 -16.076 -22.220  1.00  0.00     0.000 C 
BRANCH   8   9
HETATM    9  C   UNL     1      35.181 -14.785 -23.032  1.00  0.00     0.000 C 
BRANCH   9  10
HETATM   10  C   UNL     1      33.712 -14.527 -23.389  1.00  0.00     0.004 C 
BRANCH  10  11
HETATM   11  C   UNL     1      32.789 -15.515 -22.658  1.00  0.00     0.027 C 
BRANCH  11  12
HETATM   12  C   UNL     1      31.441 -14.911 -22.347  1.00  0.00    -0.031 C 
HETATM   13  C   UNL     1      31.014 -14.526 -21.129  1.00  0.00    -0.031 C 
BRANCH  13  14
HETATM   14  C   UNL     1      31.819 -14.589 -19.854  1.00  0.00     0.027 C 
BRANCH  14  15
HETATM   15  C   UNL     1      31.583 -13.330 -19.015  1.00  0.00     0.004 C 
BRANCH  15  16
HETATM   16  C   UNL     1      32.680 -13.160 -17.957  1.00  0.00     0.000 C 
BRANCH  16  17
HETATM   17  C   UNL     1      32.291 -12.093 -16.927  1.00  0.00    -0.000 C 
BRANCH  17  18
HETATM   18  C   UNL     1      31.126 -12.573 -16.053  1.00  0.00    -0.005 C 
HETATM   19  C   UNL     1      31.607 -12.951 -14.655  1.00  0.00     0.005 C 
ENDBRANCH  17  18
ENDBRANCH  16  17
ENDBRANCH  15  16
ENDBRANCH  14  15
ENDBRANCH  13  14
ENDBRANCH  11  12
ENDBRANCH  10  11
ENDBRANCH   9  10
ENDBRANCH   8   9
ENDBRANCH   7   8
ENDBRANCH   6   7
ENDBRANCH   5   6
ENDBRANCH   3   5
ENDBRANCH   1   3
TORSDOF 14
ENDMDL
MODEL 17
REMARK VINA RESULT:      -4.7      3.054      4.180
REMARK  14 active torsions:
REMARK  status: ('A' for Active; 'I' for Inactive)
REMARK    1  A    between atoms: O_1  and  C_18 
REMARK    2  A    between atoms: C_3  and  C_4 
REMARK    3  A    between atoms: C_3  and  C_5 
REMARK    4  A    between atoms: C_4  and  C_6 
REMARK    5  A    between atoms: C_5  and  C_7 
REMARK    6  A    between atoms: C_6  and  C_8 
REMARK    7  A    between atoms: C_7  and  C_13 
REMARK    8  A    between atoms: C_8  and  C_15 
REMARK    9  A    between atoms: C_9  and  C_10 
REMARK   10  A    between atoms: C_9  and  C_11 
REMARK   11  A    between atoms: C_10  and  C_12 
REMARK   12  A    between atoms: C_11  and  C_14 
REMARK   13  A    between atoms: C_12  and  C_16 
REMARK   14  A    between atoms: C_15  and  C_18 
ROOT
HETATM    1  O   UNL     1      33.697 -11.739  -8.460  1.00  0.00    -0.776 OA
HETATM    2  H   UNL     1      33.261 -11.439  -9.271  1.00  0.00     0.167 HD
ENDROOT
BRANCH   1   3
HETATM    3  C   UNL     1      33.169 -11.489  -7.244  1.00  0.00     0.139 C 
HETATM    4  O   UNL     1      33.657 -10.617  -6.537  1.00  0.00    -0.650 OA
BRANCH   3   5
HETATM    5  C   UNL     1      31.983 -12.295  -6.782  1.00  0.00     0.110 C 
BRANCH   5   6
HETATM    6  C   UNL     1      31.406 -13.202  -7.879  1.00  0.00     0.010 C 
BRANCH   6   7
HETATM    7  C   UNL     1      31.274 -14.648  -7.385  1.00  0.00     0.001 C 
BRANCH   7   8
HETATM    8  C   UNL     1      32.029 -15.615  -8.303  1.00  0.00     0.000 C 
BRANCH   8   9
HETATM    9  C   UNL     1      33.527 -15.289  -8.333  1.00  0.00     0.000 C 
BRANCH   9  10
HETATM   10  C   UNL     1      34.036 -15.171  -9.775  1.00  0.00     0.004 C 
BRANCH  10  11
HETATM   11  C   UNL     1      35.529 -14.801  -9.800  1.00  0.00     0.027 C 
BRANCH  11  12
HETATM   12  C   UNL     1      36.404 -15.986 -10.127  1.00  0.00    -0.031 C 
HETATM   13  C   UNL     1      36.942 -16.257 -11.332  1.00  0.00    -0.031 C 
BRANCH  13  14
HETATM   14  C   UNL     1      36.803 -15.404 -12.569  1.00  0.00     0.027 C 
BRANCH  14  15
HETATM   15  C   UNL     1      35.647 -15.913 -13.437  1.00  0.00     0.004 C 
BRANCH  15  16
HETATM   16  C   UNL     1      35.066 -14.784 -14.296  1.00  0.00     0.000 C 
BRANCH  16  17
HETATM   17  C   UNL     1      33.641 -14.432 -13.852  1.00  0.00    -0.000 C 
BRANCH  17  18
HETATM   18  C   UNL     1      32.955 -15.640 -13.203  1.00  0.00    -0.005 C 
HETATM   19  C   UNL     1      31.439 -15.465 -13.180  1.00  0.00     0.005 C 
ENDBRANCH  17  18
ENDBRANCH  16  17
ENDBRANCH  15  16
ENDBRANCH  14  15
ENDBRANCH  13  14
ENDBRANCH  11  12
ENDBRANCH  10  11
ENDBRANCH   9  10
ENDBRANCH   8   9
ENDBRANCH   7   8
ENDBRANCH   6   7
ENDBRANCH   5   6
ENDBRANCH   3   5
ENDBRANCH   1   3
TORSDOF 14
ENDMDL
MODEL 18
REMARK VINA RESULT:      -4.7      3.159      5.767
REMARK  14 active torsions:
REMARK  status: ('A' for Active; 'I' for Inactive)
REMARK    1  A    between atoms: O_1  and  C_18 
REMARK    2  A    between atoms: C_3  and  C_4 
REMARK    3  A    between atoms: C_3  and  C_5 
REMARK    4  A    between atoms: C_4  and  C_6 
REMARK    5  A    between atoms: C_5  and  C_7 
REMARK    6  A    between atoms: C_6  and  C_8 
REMARK    7  A    between atoms: C_7  and  C_13 
REMARK    8  A    between atoms: C_8  and  C_15 
REMARK    9  A    between atoms: C_9  and  C_10 
REMARK   10  A    between atoms: C_9  and  C_11 
REMARK   11  A    between atoms: C_10  and  C_12 
REMARK   12  A    between atoms: C_11  and  C_14 
REMARK   13  A    between atoms: C_12  and  C_16 
REMARK   14  A    between atoms: C_15  and  C_18 
ROOT
HETATM    1  O   UNL     1      34.714 -10.841  -7.607  1.00  0.00    -0.776 OA
HETATM    2  H   UNL     1      34.749 -10.208  -8.339  1.00  0.00     0.167 HD
ENDROOT
BRANCH   1   3
HETATM    3  C   UNL     1      33.725 -11.754  -7.514  1.00  0.00     0.139 C 
HETATM    4  O   UNL     1      33.410 -12.200  -6.418  1.00  0.00    -0.650 OA
BRANCH   3   5
HETATM    5  C   UNL     1      33.027 -12.206  -8.770  1.00  0.00     0.110 C 
BRANCH   5   6
HETATM    6  C   UNL     1      32.612 -13.684  -8.732  1.00  0.00     0.010 C 
BRANCH   6   7
HETATM    7  C   UNL     1      31.578 -13.994  -9.821  1.00  0.00     0.001 C 
BRANCH   7   8
HETATM    8  C   UNL     1      31.443 -12.823 -10.801  1.00  0.00     0.000 C 
BRANCH   8   9
HETATM    9  C   UNL     1      31.120 -13.322 -12.215  1.00  0.00     0.000 C 
BRANCH   9  10
HETATM   10  C   UNL     1      31.303 -14.840 -12.318  1.00  0.00     0.004 C 
BRANCH  10  11
HETATM   11  C   UNL     1      32.237 -15.201 -13.485  1.00  0.00     0.027 C 
BRANCH  11  12
HETATM   12  C   UNL     1      33.413 -14.261 -13.585  1.00  0.00    -0.031 C 
HETATM   13  C   UNL     1      34.493 -14.263 -12.779  1.00  0.00    -0.031 C 
BRANCH  13  14
HETATM   14  C   UNL     1      34.745 -15.233 -11.651  1.00  0.00     0.027 C 
BRANCH  14  15
HETATM   15  C   UNL     1      36.043 -14.872 -10.922  1.00  0.00     0.004 C 
BRANCH  15  16
HETATM   16  C   UNL     1      36.082 -15.502  -9.525  1.00  0.00     0.000 C 
BRANCH  16  17
HETATM   17  C   UNL     1      37.465 -15.331  -8.882  1.00  0.00    -0.000 C 
BRANCH  17  18
HETATM   18  C   UNL     1      37.361 -15.319  -7.353  1.00  0.00    -0.005 C 
HETATM   19  C   UNL     1      36.112 -14.575  -6.892  1.00  0.00     0.005 C 
ENDBRANCH  17  18
ENDBRANCH  16  17
ENDBRANCH  15  16
ENDBRANCH  14  15
ENDBRANCH  13  14
ENDBRANCH  11  12
ENDBRANCH  10  11
ENDBRANCH   9  10
ENDBRANCH   8   9
ENDBRANCH   7   8
ENDBRANCH   6   7
ENDBRANCH   5   6
ENDBRANCH   3   5
ENDBRANCH   1   3
TORSDOF 14
ENDMDL
MODEL 19
REMARK VINA RESULT:      -4.6      2.770      5.145
REMARK  14 active torsions:
REMARK  status: ('A' for Active; 'I' for Inactive)
REMARK    1  A    between atoms: O_1  and  C_18 
REMARK    2  A    between atoms: C_3  and  C_4 
REMARK    3  A    between atoms: C_3  and  C_5 
REMARK    4  A    between atoms: C_4  and  C_6 
REMARK    5  A    between atoms: C_5  and  C_7 
REMARK    6  A    between atoms: C_6  and  C_8 
REMARK    7  A    between atoms: C_7  and  C_13 
REMARK    8  A    between atoms: C_8  and  C_15 
REMARK    9  A    between atoms: C_9  and  C_10 
REMARK   10  A    between atoms: C_9  and  C_11 
REMARK   11  A    between atoms: C_10  and  C_12 
REMARK   12  A    between atoms: C_11  and  C_14 
REMARK   13  A    between atoms: C_12  and  C_16 
REMARK   14  A    between atoms: C_15  and  C_18 
ROOT
HETATM    1  O   UNL     1      38.256 -14.421 -15.192  1.00  0.00    -0.776 OA
HETATM    2  H   UNL     1      38.050 -13.973 -14.359  1.00  0.00     0.167 HD
ENDROOT
BRANCH   1   3
HETATM    3  C   UNL     1      37.360 -15.227 -15.798  1.00  0.00     0.139 C 
HETATM    4  O   UNL     1      37.718 -16.310 -16.241  1.00  0.00    -0.650 OA
BRANCH   3   5
HETATM    5  C   UNL     1      35.928 -14.771 -15.913  1.00  0.00     0.110 C 
BRANCH   5   6
HETATM    6  C   UNL     1      35.053 -15.229 -14.737  1.00  0.00     0.010 C 
BRANCH   6   7
HETATM    7  C   UNL     1      35.826 -15.157 -13.415  1.00  0.00     0.001 C 
BRANCH   7   8
HETATM    8  C   UNL     1      34.969 -15.660 -12.248  1.00  0.00     0.000 C 
BRANCH   8   9
HETATM    9  C   UNL     1      33.965 -14.591 -11.800  1.00  0.00     0.000 C 
BRANCH   9  10
HETATM   10  C   UNL     1      32.524 -15.095 -11.941  1.00  0.00     0.004 C 
BRANCH  10  11
HETATM   11  C   UNL     1      31.659 -14.075 -12.701  1.00  0.00     0.027 C 
BRANCH  11  12
HETATM   12  C   UNL     1      31.383 -14.507 -14.120  1.00  0.00    -0.031 C 
HETATM   13  C   UNL     1      31.746 -13.837 -15.231  1.00  0.00    -0.031 C 
BRANCH  13  14
HETATM   14  C   UNL     1      32.531 -12.549 -15.263  1.00  0.00     0.027 C 
BRANCH  14  15
HETATM   15  C   UNL     1      32.294 -11.816 -16.587  1.00  0.00     0.004 C 
BRANCH  15  16
HETATM   16  C   UNL     1      33.418 -12.110 -17.588  1.00  0.00     0.000 C 
BRANCH  16  17
HETATM   17  C   UNL     1      32.911 -12.982 -18.743  1.00  0.00    -0.000 C 
BRANCH  17  18
HETATM   18  C   UNL     1      33.621 -14.341 -18.757  1.00  0.00    -0.005 C 
HETATM   19  C   UNL     1      32.657 -15.468 -18.401  1.00  0.00     0.005 C 
ENDBRANCH  17  18
ENDBRANCH  16  17
ENDBRANCH  15  16
ENDBRANCH  14  15
ENDBRANCH  13  14
ENDBRANCH  11  12
ENDBRANCH  10  11
ENDBRANCH   9  10
ENDBRANCH   8   9
ENDBRANCH   7   8
ENDBRANCH   6   7
ENDBRANCH   5   6
ENDBRANCH   3   5
ENDBRANCH   1   3
TORSDOF 14
ENDMDL
MODEL 20
REMARK VINA RESULT:      -4.6      2.717      4.547
REMARK  14 active torsions:
REMARK  status: ('A' for Active; 'I' for Inactive)
REMARK    1  A    between atoms: O_1  and  C_18 
REMARK    2  A    between atoms: C_3  and  C_4 
REMARK    3  A    between atoms: C_3  and  C_5 
REMARK    4  A    between atoms: C_4  and  C_6 
REMARK    5  A    between atoms: C_5  and  C_7 
REMARK    6  A    between atoms: C_6  and  C_8 
REMARK    7  A    between atoms: C_7  and  C_13 
REMARK    8  A    between atoms: C_8  and  C_15 
REMARK    9  A    between atoms: C_9  and  C_10 
REMARK   10  A    between atoms: C_9  and  C_11 
REMARK   11  A    between atoms: C_10  and  C_12 
REMARK   12  A    between atoms: C_11  and  C_14 
REMARK   13  A    between atoms: C_12  and  C_16 
REMARK   14  A    between atoms: C_15  and  C_18 
ROOT
HETATM    1  O   UNL     1      36.318 -14.425 -11.466  1.00  0.00    -0.776 OA
HETATM    2  H   UNL     1      36.694 -13.536 -11.392  1.00  0.00     0.167 HD
ENDROOT
BRANCH   1   3
HETATM    3  C   UNL     1      36.259 -15.067 -12.652  1.00  0.00     0.139 C 
HETATM    4  O   UNL     1      37.276 -15.205 -13.320  1.00  0.00    -0.650 OA
BRANCH   3   5
HETATM    5  C   UNL     1      34.934 -15.604 -13.127  1.00  0.00     0.110 C 
BRANCH   5   6
HETATM    6  C   UNL     1      34.141 -14.594 -13.970  1.00  0.00     0.010 C 
BRANCH   6   7
HETATM    7  C   UNL     1      34.015 -15.068 -15.422  1.00  0.00     0.001 C 
BRANCH   7   8
HETATM    8  C   UNL     1      35.313 -14.817 -16.198  1.00  0.00     0.000 C 
BRANCH   8   9
HETATM    9  C   UNL     1      35.942 -16.137 -16.661  1.00  0.00     0.000 C 
BRANCH   9  10
HETATM   10  C   UNL     1      37.422 -15.949 -17.014  1.00  0.00     0.004 C 
BRANCH  10  11
HETATM   11  C   UNL     1      37.606 -14.778 -17.993  1.00  0.00     0.027 C 
BRANCH  11  12
HETATM   12  C   UNL     1      38.251 -15.213 -19.287  1.00  0.00    -0.031 C 
HETATM   13  C   UNL     1      37.602 -15.685 -20.369  1.00  0.00    -0.031 C 
BRANCH  13  14
HETATM   14  C   UNL     1      36.106 -15.827 -20.504  1.00  0.00     0.027 C 
BRANCH  14  15
HETATM   15  C   UNL     1      35.535 -14.672 -21.331  1.00  0.00     0.004 C 
BRANCH  15  16
HETATM   16  C   UNL     1      34.083 -14.378 -20.939  1.00  0.00     0.000 C 
BRANCH  16  17
HETATM   17  C   UNL     1      33.799 -14.831 -19.501  1.00  0.00    -0.000 C 
BRANCH  17  18
HETATM   18  C   UNL     1      32.813 -13.881 -18.811  1.00  0.00    -0.005 C 
HETATM   19  C   UNL     1      31.525 -14.606 -18.431  1.00  0.00     0.005 C 
ENDBRANCH  17  18
ENDBRANCH  16  17
ENDBRANCH  15  16
ENDBRANCH  14  15
ENDBRANCH  13  14
ENDBRANCH  11  12
ENDBRANCH  10  11
ENDBRANCH   9  10
ENDBRANCH   8   9
ENDBRANCH   7   8
ENDBRANCH   6   7
ENDBRANCH   5   6
ENDBRANCH   3   5
ENDBRANCH   1   3
TORSDOF 14
ENDMDL
