MODEL 1
REMARK VINA RESULT:     -10.0      0.000      0.000
REMARK  2 active torsions:
REMARK  status: ('A' for Active; 'I' for Inactive)
REMARK    1  A    between atoms: N_3  and  C_15 
REMARK    2  A    between atoms: C_5  and  C_7 
ROOT
HETATM    1  S   UNL     1      24.565   9.359 -10.520  1.00  0.00    -0.069 SA
HETATM    2  N   UNL     1      27.096   9.454 -10.570  1.00  0.00    -0.344 N 
HETATM    3  C   UNL     1      26.712   9.380  -9.255  1.00  0.00     0.052 A 
HETATM    4  C   UNL     1      26.009   9.424 -11.414  1.00  0.00     0.087 A 
HETATM    5  C   UNL     1      25.344   9.321  -9.046  1.00  0.00     0.034 A 
HETATM    6  C   UNL     1      27.575   9.377  -8.145  1.00  0.00     0.031 A 
HETATM    7  C   UNL     1      24.777   9.251  -7.777  1.00  0.00     0.028 A 
HETATM    8  C   UNL     1      28.509   9.613 -10.943  1.00  0.00     0.157 C 
HETATM    9  C   UNL     1      25.634   9.242  -6.661  1.00  0.00    -0.061 A 
HETATM   10  C   UNL     1      27.030   9.306  -6.853  1.00  0.00     0.009 A 
HETATM   11  C   UNL     1      25.079   9.167  -5.270  1.00  0.00     0.048 C 
ENDROOT
BRANCH   4  12
HETATM   12  C   UNL     1      25.993   9.410 -12.912  1.00  0.00    -0.002 A 
HETATM   13  C   UNL     1      27.148   9.605 -13.691  1.00  0.00     0.016 A 
HETATM   14  C   UNL     1      27.092   9.562 -15.088  1.00  0.00     0.030 A 
HETATM   15  C   UNL     1      25.880   9.312 -15.765  1.00  0.00     0.029 A 
HETATM   16  C   UNL     1      24.728   9.095 -14.979  1.00  0.00     0.030 A 
HETATM   17  C   UNL     1      24.789   9.134 -13.583  1.00  0.00     0.016 A 
BRANCH  15  18
HETATM   18  N   UNL     1      25.821   9.268 -17.207  1.00  0.00    -0.390 N 
HETATM   19  C   UNL     1      24.538   9.244 -17.897  1.00  0.00     0.149 C 
HETATM   20  C   UNL     1      27.043   9.247 -17.999  1.00  0.00     0.149 C 
ENDBRANCH  15  18
ENDBRANCH   4  12
TORSDOF 2
ENDMDL
MODEL 2
REMARK VINA RESULT:     -10.0      1.541      7.650
REMARK  2 active torsions:
REMARK  status: ('A' for Active; 'I' for Inactive)
REMARK    1  A    between atoms: N_3  and  C_15 
REMARK    2  A    between atoms: C_5  and  C_7 
ROOT
HETATM    1  S   UNL     1      24.560   9.179 -13.543  1.00  0.00    -0.069 SA
HETATM    2  N   UNL     1      27.086   9.338 -13.670  1.00  0.00    -0.344 N 
HETATM    3  C   UNL     1      26.606   9.349 -14.956  1.00  0.00     0.052 A 
HETATM    4  C   UNL     1      26.062   9.275 -12.752  1.00  0.00     0.087 A 
HETATM    5  C   UNL     1      25.227   9.268 -15.068  1.00  0.00     0.034 A 
HETATM    6  C   UNL     1      27.385   9.418 -16.124  1.00  0.00     0.031 A 
HETATM    7  C   UNL     1      24.570   9.258 -16.295  1.00  0.00     0.028 A 
HETATM    8  C   UNL     1      28.529   9.327 -13.396  1.00  0.00     0.157 C 
HETATM    9  C   UNL     1      25.342   9.332 -17.469  1.00  0.00    -0.061 A 
HETATM   10  C   UNL     1      26.748   9.411 -17.375  1.00  0.00     0.009 A 
HETATM   11  C   UNL     1      24.688   9.325 -18.818  1.00  0.00     0.048 C 
ENDROOT
BRANCH   4  12
HETATM   12  C   UNL     1      26.148   9.315 -11.257  1.00  0.00    -0.002 A 
HETATM   13  C   UNL     1      27.347   9.568 -10.566  1.00  0.00     0.016 A 
HETATM   14  C   UNL     1      27.379   9.618  -9.169  1.00  0.00     0.030 A 
HETATM   15  C   UNL     1      26.210   9.427  -8.403  1.00  0.00     0.029 A 
HETATM   16  C   UNL     1      25.005   9.196  -9.101  1.00  0.00     0.030 A 
HETATM   17  C   UNL     1      24.977   9.151 -10.497  1.00  0.00     0.016 A 
BRANCH  15  18
HETATM   18  N   UNL     1      26.241   9.477  -6.960  1.00  0.00    -0.390 N 
HETATM   19  C   UNL     1      25.005   9.446  -6.190  1.00  0.00     0.149 C 
HETATM   20  C   UNL     1      27.509   9.562  -6.248  1.00  0.00     0.149 C 
ENDBRANCH  15  18
ENDBRANCH   4  12
TORSDOF 2
ENDMDL
MODEL 3
REMARK VINA RESULT:     -10.0      2.102      4.032
REMARK  2 active torsions:
REMARK  status: ('A' for Active; 'I' for Inactive)
REMARK    1  A    between atoms: N_3  and  C_15 
REMARK    2  A    between atoms: C_5  and  C_7 
ROOT
HETATM    1  S   UNL     1      24.455   9.300 -14.333  1.00  0.00    -0.069 SA
HETATM    2  N   UNL     1      26.983   9.477 -14.364  1.00  0.00    -0.344 N 
HETATM    3  C   UNL     1      26.589   9.422 -13.051  1.00  0.00     0.052 A 
HETATM    4  C   UNL     1      25.905   9.391 -15.216  1.00  0.00     0.087 A 
HETATM    5  C   UNL     1      25.221   9.322 -12.852  1.00  0.00     0.034 A 
HETATM    6  C   UNL     1      27.441   9.475 -11.934  1.00  0.00     0.031 A 
HETATM    7  C   UNL     1      24.645   9.265 -11.586  1.00  0.00     0.028 A 
HETATM    8  C   UNL     1      28.393   9.674 -14.729  1.00  0.00     0.157 C 
HETATM    9  C   UNL     1      25.492   9.310 -10.463  1.00  0.00    -0.061 A 
HETATM   10  C   UNL     1      26.887   9.416 -10.645  1.00  0.00     0.009 A 
HETATM   11  C   UNL     1      24.927   9.251  -9.076  1.00  0.00     0.048 C 
ENDROOT
BRANCH   4  12
HETATM   12  C   UNL     1      25.904   9.340 -16.714  1.00  0.00    -0.002 A 
HETATM   13  C   UNL     1      24.724   9.317 -17.478  1.00  0.00     0.016 A 
HETATM   14  C   UNL     1      24.769   9.293 -18.875  1.00  0.00     0.030 A 
HETATM   15  C   UNL     1      25.998   9.300 -19.568  1.00  0.00     0.029 A 
HETATM   16  C   UNL     1      27.179   9.346 -18.798  1.00  0.00     0.030 A 
HETATM   17  C   UNL     1      27.130   9.375 -17.402  1.00  0.00     0.016 A 
BRANCH  15  18
HETATM   18  N   UNL     1      26.045   9.273 -21.012  1.00  0.00    -0.390 N 
HETATM   19  C   UNL     1      27.323   9.250 -21.711  1.00  0.00     0.149 C 
HETATM   20  C   UNL     1      24.818   9.271 -21.795  1.00  0.00     0.149 C 
ENDBRANCH  15  18
ENDBRANCH   4  12
TORSDOF 2
ENDMDL
MODEL 4
REMARK VINA RESULT:      -9.9      1.534      7.765
REMARK  2 active torsions:
REMARK  status: ('A' for Active; 'I' for Inactive)
REMARK    1  A    between atoms: N_3  and  C_15 
REMARK    2  A    between atoms: C_5  and  C_7 
ROOT
HETATM    1  S   UNL     1      24.450   9.226 -13.552  1.00  0.00    -0.069 SA
HETATM    2  N   UNL     1      26.980   9.357 -13.620  1.00  0.00    -0.344 N 
HETATM    3  C   UNL     1      26.532   9.362 -14.917  1.00  0.00     0.052 A 
HETATM    4  C   UNL     1      25.933   9.313 -12.726  1.00  0.00     0.087 A 
HETATM    5  C   UNL     1      25.155   9.294 -15.061  1.00  0.00     0.034 A 
HETATM    6  C   UNL     1      27.339   9.412 -16.066  1.00  0.00     0.031 A 
HETATM    7  C   UNL     1      24.527   9.280 -16.304  1.00  0.00     0.028 A 
HETATM    8  C   UNL     1      28.416   9.333 -13.311  1.00  0.00     0.157 C 
HETATM    9  C   UNL     1      25.329   9.336 -17.459  1.00  0.00    -0.061 A 
HETATM   10  C   UNL     1      26.733   9.401 -17.332  1.00  0.00     0.009 A 
HETATM   11  C   UNL     1      24.707   9.325 -18.823  1.00  0.00     0.048 C 
ENDROOT
BRANCH   4  12
HETATM   12  C   UNL     1      25.985   9.365 -11.230  1.00  0.00    -0.002 A 
HETATM   13  C   UNL     1      24.856   9.155 -10.417  1.00  0.00     0.016 A 
HETATM   14  C   UNL     1      24.953   9.191  -9.023  1.00  0.00     0.030 A 
HETATM   15  C   UNL     1      26.187   9.428  -8.381  1.00  0.00     0.029 A 
HETATM   16  C   UNL     1      27.321   9.615  -9.200  1.00  0.00     0.030 A 
HETATM   17  C   UNL     1      27.221   9.574 -10.592  1.00  0.00     0.016 A 
BRANCH  15  18
HETATM   18  N   UNL     1      26.289   9.466  -6.941  1.00  0.00    -0.390 N 
HETATM   19  C   UNL     1      27.589   9.561  -6.291  1.00  0.00     0.149 C 
HETATM   20  C   UNL     1      25.094   9.407  -6.111  1.00  0.00     0.149 C 
ENDBRANCH  15  18
ENDBRANCH   4  12
TORSDOF 2
ENDMDL
MODEL 5
REMARK VINA RESULT:      -9.9      1.887      8.300
REMARK  2 active torsions:
REMARK  status: ('A' for Active; 'I' for Inactive)
REMARK    1  A    between atoms: N_3  and  C_15 
REMARK    2  A    between atoms: C_5  and  C_7 
ROOT
HETATM    1  S   UNL     1      24.559   9.056 -16.192  1.00  0.00    -0.069 SA
HETATM    2  N   UNL     1      27.063   9.440 -16.180  1.00  0.00    -0.344 N 
HETATM    3  C   UNL     1      26.652   9.440 -17.489  1.00  0.00     0.052 A 
HETATM    4  C   UNL     1      26.003   9.265 -15.320  1.00  0.00     0.087 A 
HETATM    5  C   UNL     1      25.294   9.241 -17.677  1.00  0.00     0.034 A 
HETATM    6  C   UNL     1      27.481   9.606 -18.612  1.00  0.00     0.031 A 
HETATM    7  C   UNL     1      24.705   9.203 -18.938  1.00  0.00     0.028 A 
HETATM    8  C   UNL     1      28.486   9.550 -15.829  1.00  0.00     0.157 C 
HETATM    9  C   UNL     1      25.527   9.374 -20.067  1.00  0.00    -0.061 A 
HETATM   10  C   UNL     1      26.913   9.574 -19.896  1.00  0.00     0.009 A 
HETATM   11  C   UNL     1      24.946   9.343 -21.449  1.00  0.00     0.048 C 
ENDROOT
BRANCH   4  12
HETATM   12  C   UNL     1      26.008   9.275 -13.822  1.00  0.00    -0.002 A 
HETATM   13  C   UNL     1      27.190   9.303 -13.061  1.00  0.00     0.016 A 
HETATM   14  C   UNL     1      27.149   9.335 -11.664  1.00  0.00     0.030 A 
HETATM   15  C   UNL     1      25.922   9.349 -10.968  1.00  0.00     0.029 A 
HETATM   16  C   UNL     1      24.738   9.344 -11.736  1.00  0.00     0.030 A 
HETATM   17  C   UNL     1      24.783   9.317 -13.132  1.00  0.00     0.016 A 
BRANCH  15  18
HETATM   18  N   UNL     1      25.878   9.381  -9.525  1.00  0.00    -0.390 N 
HETATM   19  C   UNL     1      27.107   9.457  -8.747  1.00  0.00     0.149 C 
HETATM   20  C   UNL     1      24.604   9.336  -8.819  1.00  0.00     0.149 C 
ENDBRANCH  15  18
ENDBRANCH   4  12
TORSDOF 2
ENDMDL
MODEL 6
REMARK VINA RESULT:      -9.9      2.521      4.763
REMARK  2 active torsions:
REMARK  status: ('A' for Active; 'I' for Inactive)
REMARK    1  A    between atoms: N_3  and  C_15 
REMARK    2  A    between atoms: C_5  and  C_7 
ROOT
HETATM    1  S   UNL     1      24.575   9.394 -15.285  1.00  0.00    -0.069 SA
HETATM    2  N   UNL     1      27.108   9.439 -15.332  1.00  0.00    -0.344 N 
HETATM    3  C   UNL     1      26.721   9.372 -14.017  1.00  0.00     0.052 A 
HETATM    4  C   UNL     1      26.021   9.430 -16.176  1.00  0.00     0.087 A 
HETATM    5  C   UNL     1      25.351   9.339 -13.810  1.00  0.00     0.034 A 
HETATM    6  C   UNL     1      27.582   9.352 -12.906  1.00  0.00     0.031 A 
HETATM    7  C   UNL     1      24.782   9.280 -12.541  1.00  0.00     0.028 A 
HETATM    8  C   UNL     1      28.524   9.570 -15.703  1.00  0.00     0.157 C 
HETATM    9  C   UNL     1      25.637   9.254 -11.424  1.00  0.00    -0.061 A 
HETATM   10  C   UNL     1      27.035   9.290 -11.614  1.00  0.00     0.009 A 
HETATM   11  C   UNL     1      25.079   9.189 -10.034  1.00  0.00     0.048 C 
ENDROOT
BRANCH   4  12
HETATM   12  C   UNL     1      26.008   9.417 -17.675  1.00  0.00    -0.002 A 
HETATM   13  C   UNL     1      27.170   9.562 -18.452  1.00  0.00     0.016 A 
HETATM   14  C   UNL     1      27.115   9.521 -19.849  1.00  0.00     0.030 A 
HETATM   15  C   UNL     1      25.894   9.325 -20.528  1.00  0.00     0.029 A 
HETATM   16  C   UNL     1      24.733   9.158 -19.743  1.00  0.00     0.030 A 
HETATM   17  C   UNL     1      24.793   9.194 -18.348  1.00  0.00     0.016 A 
BRANCH  15  18
HETATM   18  N   UNL     1      25.835   9.284 -21.970  1.00  0.00    -0.390 N 
HETATM   19  C   UNL     1      24.552   9.275 -22.660  1.00  0.00     0.149 C 
HETATM   20  C   UNL     1      27.057   9.249 -22.762  1.00  0.00     0.149 C 
ENDBRANCH  15  18
ENDBRANCH   4  12
TORSDOF 2
ENDMDL
MODEL 7
REMARK VINA RESULT:      -9.6      2.769      9.315
REMARK  2 active torsions:
REMARK  status: ('A' for Active; 'I' for Inactive)
REMARK    1  A    between atoms: N_3  and  C_15 
REMARK    2  A    between atoms: C_5  and  C_7 
ROOT
HETATM    1  S   UNL     1      24.425   9.235 -18.124  1.00  0.00    -0.069 SA
HETATM    2  N   UNL     1      26.955   9.333 -18.222  1.00  0.00    -0.344 N 
HETATM    3  C   UNL     1      26.492   9.340 -19.513  1.00  0.00     0.052 A 
HETATM    4  C   UNL     1      25.919   9.304 -17.316  1.00  0.00     0.087 A 
HETATM    5  C   UNL     1      25.113   9.291 -19.642  1.00  0.00     0.034 A 
HETATM    6  C   UNL     1      27.286   9.378 -20.673  1.00  0.00     0.031 A 
HETATM    7  C   UNL     1      24.470   9.282 -20.876  1.00  0.00     0.028 A 
HETATM    8  C   UNL     1      28.395   9.291 -17.930  1.00  0.00     0.157 C 
HETATM    9  C   UNL     1      25.258   9.325 -22.042  1.00  0.00    -0.061 A 
HETATM   10  C   UNL     1      26.664   9.372 -21.932  1.00  0.00     0.009 A 
HETATM   11  C   UNL     1      24.620   9.319 -23.398  1.00  0.00     0.048 C 
ENDROOT
BRANCH   4  12
HETATM   12  C   UNL     1      25.989   9.358 -15.820  1.00  0.00    -0.002 A 
HETATM   13  C   UNL     1      24.872   9.145 -14.993  1.00  0.00     0.016 A 
HETATM   14  C   UNL     1      24.986   9.183 -13.600  1.00  0.00     0.030 A 
HETATM   15  C   UNL     1      26.227   9.426 -12.974  1.00  0.00     0.029 A 
HETATM   16  C   UNL     1      27.350   9.617 -13.807  1.00  0.00     0.030 A 
HETATM   17  C   UNL     1      27.232   9.574 -15.199  1.00  0.00     0.016 A 
BRANCH  15  18
HETATM   18  N   UNL     1      26.346   9.467 -11.536  1.00  0.00    -0.390 N 
HETATM   19  C   UNL     1      27.653   9.586 -10.903  1.00  0.00     0.149 C 
HETATM   20  C   UNL     1      25.163   9.388 -10.690  1.00  0.00     0.149 C 
ENDBRANCH  15  18
ENDBRANCH   4  12
TORSDOF 2
ENDMDL
MODEL 8
REMARK VINA RESULT:      -9.3      1.482      2.565
REMARK  2 active torsions:
REMARK  status: ('A' for Active; 'I' for Inactive)
REMARK    1  A    between atoms: N_3  and  C_15 
REMARK    2  A    between atoms: C_5  and  C_7 
ROOT
HETATM    1  S   UNL     1      27.642   9.300 -12.122  1.00  0.00    -0.069 SA
HETATM    2  N   UNL     1      25.111   9.348 -12.217  1.00  0.00    -0.344 N 
HETATM    3  C   UNL     1      25.474   9.361 -10.894  1.00  0.00     0.052 A 
HETATM    4  C   UNL     1      26.214   9.342 -13.041  1.00  0.00     0.087 A 
HETATM    5  C   UNL     1      26.840   9.339 -10.661  1.00  0.00     0.034 A 
HETATM    6  C   UNL     1      24.593   9.380  -9.799  1.00  0.00     0.031 A 
HETATM    7  C   UNL     1      27.386   9.339  -9.380  1.00  0.00     0.028 A 
HETATM    8  C   UNL     1      23.699   9.278 -12.619  1.00  0.00     0.157 C 
HETATM    9  C   UNL     1      26.510   9.363  -8.279  1.00  0.00    -0.061 A 
HETATM   10  C   UNL     1      25.116   9.383  -8.496  1.00  0.00     0.009 A 
HETATM   11  C   UNL     1      27.043   9.366  -6.878  1.00  0.00     0.048 C 
ENDROOT
BRANCH   4  12
HETATM   12  C   UNL     1      26.258   9.399 -14.538  1.00  0.00    -0.002 A 
HETATM   13  C   UNL     1      27.445   9.609 -15.262  1.00  0.00     0.016 A 
HETATM   14  C   UNL     1      27.444   9.633 -16.660  1.00  0.00     0.030 A 
HETATM   15  C   UNL     1      26.255   9.438 -17.394  1.00  0.00     0.029 A 
HETATM   16  C   UNL     1      25.070   9.205 -16.665  1.00  0.00     0.030 A 
HETATM   17  C   UNL     1      25.076   9.178 -15.268  1.00  0.00     0.016 A 
BRANCH  15  18
HETATM   18  N   UNL     1      26.253   9.464 -18.838  1.00  0.00    -0.390 N 
HETATM   19  C   UNL     1      27.492   9.663 -19.579  1.00  0.00     0.149 C 
HETATM   20  C   UNL     1      25.012   9.293 -19.582  1.00  0.00     0.149 C 
ENDBRANCH  15  18
ENDBRANCH   4  12
TORSDOF 2
ENDMDL
MODEL 9
REMARK VINA RESULT:      -9.3      1.227      2.054
REMARK  2 active torsions:
REMARK  status: ('A' for Active; 'I' for Inactive)
REMARK    1  A    between atoms: N_3  and  C_15 
REMARK    2  A    between atoms: C_5  and  C_7 
ROOT
HETATM    1  S   UNL     1      24.623   9.425  -8.686  1.00  0.00    -0.069 SA
HETATM    2  N   UNL     1      27.156   9.480  -8.650  1.00  0.00    -0.344 N 
HETATM    3  C   UNL     1      26.726   9.433  -7.348  1.00  0.00     0.052 A 
HETATM    4  C   UNL     1      26.098   9.455  -9.530  1.00  0.00     0.087 A 
HETATM    5  C   UNL     1      25.351   9.397  -7.186  1.00  0.00     0.034 A 
HETATM    6  C   UNL     1      27.550   9.433  -6.209  1.00  0.00     0.031 A 
HETATM    7  C   UNL     1      24.740   9.356  -5.936  1.00  0.00     0.028 A 
HETATM    8  C   UNL     1      28.583   9.612  -8.977  1.00  0.00     0.157 C 
HETATM    9  C   UNL     1      25.558   9.350  -4.791  1.00  0.00    -0.061 A 
HETATM   10  C   UNL     1      26.961   9.389  -4.935  1.00  0.00     0.009 A 
HETATM   11  C   UNL     1      24.954   9.304  -3.419  1.00  0.00     0.048 C 
ENDROOT
BRANCH   4  12
HETATM   12  C   UNL     1      26.134   9.418 -11.028  1.00  0.00    -0.002 A 
HETATM   13  C   UNL     1      27.331   9.368 -11.764  1.00  0.00     0.016 A 
HETATM   14  C   UNL     1      27.317   9.313 -13.161  1.00  0.00     0.030 A 
HETATM   15  C   UNL     1      26.105   9.296 -13.882  1.00  0.00     0.029 A 
HETATM   16  C   UNL     1      24.906   9.324 -13.138  1.00  0.00     0.030 A 
HETATM   17  C   UNL     1      24.923   9.374 -11.742  1.00  0.00     0.016 A 
BRANCH  15  18
HETATM   18  N   UNL     1      26.090   9.240 -15.325  1.00  0.00    -0.390 N 
HETATM   19  C   UNL     1      27.293   9.537 -16.091  1.00  0.00     0.149 C 
HETATM   20  C   UNL     1      24.872   8.887 -16.041  1.00  0.00     0.149 C 
ENDBRANCH  15  18
ENDBRANCH   4  12
TORSDOF 2
ENDMDL
MODEL 10
REMARK VINA RESULT:      -9.3      1.725      7.936
REMARK  2 active torsions:
REMARK  status: ('A' for Active; 'I' for Inactive)
REMARK    1  A    between atoms: N_3  and  C_15 
REMARK    2  A    between atoms: C_5  and  C_7 
ROOT
HETATM    1  S   UNL     1      27.823   9.605 -13.549  1.00  0.00    -0.069 SA
HETATM    2  N   UNL     1      25.305   9.325 -13.573  1.00  0.00    -0.344 N 
HETATM    3  C   UNL     1      25.734   9.308 -14.876  1.00  0.00     0.052 A 
HETATM    4  C   UNL     1      26.359   9.457 -12.698  1.00  0.00     0.087 A 
HETATM    5  C   UNL     1      27.102   9.451 -15.045  1.00  0.00     0.034 A 
HETATM    6  C   UNL     1      24.914   9.177 -16.010  1.00  0.00     0.031 A 
HETATM    7  C   UNL     1      27.710   9.464 -16.297  1.00  0.00     0.028 A 
HETATM    8  C   UNL     1      23.874   9.275 -13.241  1.00  0.00     0.157 C 
HETATM    9  C   UNL     1      26.897   9.327 -17.437  1.00  0.00    -0.061 A 
HETATM   10  C   UNL     1      25.501   9.185 -17.286  1.00  0.00     0.009 A 
HETATM   11  C   UNL     1      27.498   9.334 -18.811  1.00  0.00     0.048 C 
ENDROOT
BRANCH   4  12
HETATM   12  C   UNL     1      26.332   9.447 -11.200  1.00  0.00    -0.002 A 
HETATM   13  C   UNL     1      25.156   9.243 -10.456  1.00  0.00     0.016 A 
HETATM   14  C   UNL     1      25.180   9.219  -9.059  1.00  0.00     0.030 A 
HETATM   15  C   UNL     1      26.385   9.389  -8.344  1.00  0.00     0.029 A 
HETATM   16  C   UNL     1      27.566   9.571  -9.094  1.00  0.00     0.030 A 
HETATM   17  C   UNL     1      27.539   9.590 -10.491  1.00  0.00     0.016 A 
BRANCH  15  18
HETATM   18  N   UNL     1      26.410   9.365  -6.900  1.00  0.00    -0.390 N 
HETATM   19  C   UNL     1      25.184   9.170  -6.140  1.00  0.00     0.149 C 
HETATM   20  C   UNL     1      27.663   9.538  -6.177  1.00  0.00     0.149 C 
ENDBRANCH  15  18
ENDBRANCH   4  12
TORSDOF 2
ENDMDL
MODEL 11
REMARK VINA RESULT:      -9.1      2.974      9.607
REMARK  2 active torsions:
REMARK  status: ('A' for Active; 'I' for Inactive)
REMARK    1  A    between atoms: N_3  and  C_15 
REMARK    2  A    between atoms: C_5  and  C_7 
ROOT
HETATM    1  S   UNL     1      27.873   9.602 -18.365  1.00  0.00    -0.069 SA
HETATM    2  N   UNL     1      25.354   9.332 -18.410  1.00  0.00    -0.344 N 
HETATM    3  C   UNL     1      25.794   9.313 -19.709  1.00  0.00     0.052 A 
HETATM    4  C   UNL     1      26.402   9.460 -17.526  1.00  0.00     0.087 A 
HETATM    5  C   UNL     1      27.164   9.451 -19.867  1.00  0.00     0.034 A 
HETATM    6  C   UNL     1      24.984   9.185 -20.851  1.00  0.00     0.031 A 
HETATM    7  C   UNL     1      27.782   9.462 -21.114  1.00  0.00     0.028 A 
HETATM    8  C   UNL     1      23.920   9.287 -18.091  1.00  0.00     0.157 C 
HETATM    9  C   UNL     1      26.979   9.328 -22.261  1.00  0.00    -0.061 A 
HETATM   10  C   UNL     1      25.581   9.191 -22.122  1.00  0.00     0.009 A 
HETATM   11  C   UNL     1      27.591   9.333 -23.629  1.00  0.00     0.048 C 
ENDROOT
BRANCH   4  12
HETATM   12  C   UNL     1      26.363   9.450 -16.028  1.00  0.00    -0.002 A 
HETATM   13  C   UNL     1      25.181   9.243 -15.295  1.00  0.00     0.016 A 
HETATM   14  C   UNL     1      25.193   9.219 -13.897  1.00  0.00     0.030 A 
HETATM   15  C   UNL     1      26.391   9.392 -13.173  1.00  0.00     0.029 A 
HETATM   16  C   UNL     1      27.578   9.577 -13.913  1.00  0.00     0.030 A 
HETATM   17  C   UNL     1      27.563   9.595 -15.310  1.00  0.00     0.016 A 
BRANCH  15  18
HETATM   18  N   UNL     1      26.405   9.369 -11.729  1.00  0.00    -0.390 N 
HETATM   19  C   UNL     1      27.651   9.548 -10.996  1.00  0.00     0.149 C 
HETATM   20  C   UNL     1      25.174   9.165 -10.978  1.00  0.00     0.149 C 
ENDBRANCH  15  18
ENDBRANCH   4  12
TORSDOF 2
ENDMDL
MODEL 12
REMARK VINA RESULT:      -8.9      1.807      3.366
REMARK  2 active torsions:
REMARK  status: ('A' for Active; 'I' for Inactive)
REMARK    1  A    between atoms: N_3  and  C_15 
REMARK    2  A    between atoms: C_5  and  C_7 
ROOT
HETATM    1  S   UNL     1      27.803   9.313  -8.000  1.00  0.00    -0.069 SA
HETATM    2  N   UNL     1      25.271   9.308  -7.910  1.00  0.00    -0.344 N 
HETATM    3  C   UNL     1      25.730   9.364  -6.618  1.00  0.00     0.052 A 
HETATM    4  C   UNL     1      26.310   9.301  -8.812  1.00  0.00     0.087 A 
HETATM    5  C   UNL     1      27.109   9.375  -6.485  1.00  0.00     0.034 A 
HETATM    6  C   UNL     1      24.931   9.395  -5.461  1.00  0.00     0.031 A 
HETATM    7  C   UNL     1      27.748   9.421  -5.249  1.00  0.00     0.028 A 
HETATM    8  C   UNL     1      23.835   9.199  -8.204  1.00  0.00     0.157 C 
HETATM    9  C   UNL     1      26.955   9.458  -4.087  1.00  0.00    -0.061 A 
HETATM   10  C   UNL     1      25.549   9.444  -4.201  1.00  0.00     0.009 A 
HETATM   11  C   UNL     1      27.589   9.510  -2.730  1.00  0.00     0.048 C 
ENDROOT
BRANCH   4  12
HETATM   12  C   UNL     1      26.243   9.318 -10.309  1.00  0.00    -0.002 A 
HETATM   13  C   UNL     1      25.031   9.275 -11.021  1.00  0.00     0.016 A 
HETATM   14  C   UNL     1      25.013   9.316 -12.419  1.00  0.00     0.030 A 
HETATM   15  C   UNL     1      26.207   9.411 -13.164  1.00  0.00     0.029 A 
HETATM   16  C   UNL     1      27.419   9.476 -12.445  1.00  0.00     0.030 A 
HETATM   17  C   UNL     1      27.433   9.440 -11.048  1.00  0.00     0.016 A 
BRANCH  15  18
HETATM   18  N   UNL     1      26.189   9.452 -14.607  1.00  0.00    -0.390 N 
HETATM   19  C   UNL     1      24.969   9.150 -15.343  1.00  0.00     0.149 C 
HETATM   20  C   UNL     1      27.391   9.794 -15.355  1.00  0.00     0.149 C 
ENDBRANCH  15  18
ENDBRANCH   4  12
TORSDOF 2
ENDMDL
MODEL 13
REMARK VINA RESULT:      -8.8      3.480      6.689
REMARK  2 active torsions:
REMARK  status: ('A' for Active; 'I' for Inactive)
REMARK    1  A    between atoms: N_3  and  C_15 
REMARK    2  A    between atoms: C_5  and  C_7 
ROOT
HETATM    1  S   UNL     1      27.634   9.321 -16.856  1.00  0.00    -0.069 SA
HETATM    2  N   UNL     1      25.104   9.356 -16.991  1.00  0.00    -0.344 N 
HETATM    3  C   UNL     1      25.447   9.370 -15.662  1.00  0.00     0.052 A 
HETATM    4  C   UNL     1      26.220   9.356 -17.797  1.00  0.00     0.087 A 
HETATM    5  C   UNL     1      26.809   9.354 -15.408  1.00  0.00     0.034 A 
HETATM    6  C   UNL     1      24.549   9.383 -14.581  1.00  0.00     0.031 A 
HETATM    7  C   UNL     1      27.335   9.357 -14.119  1.00  0.00     0.028 A 
HETATM    8  C   UNL     1      23.699   9.279 -17.414  1.00  0.00     0.157 C 
HETATM    9  C   UNL     1      26.443   9.377 -13.031  1.00  0.00    -0.061 A 
HETATM   10  C   UNL     1      25.052   9.389 -13.270  1.00  0.00     0.009 A 
HETATM   11  C   UNL     1      26.954   9.381 -11.622  1.00  0.00     0.048 C 
ENDROOT
BRANCH   4  12
HETATM   12  C   UNL     1      26.286   9.414 -19.293  1.00  0.00    -0.002 A 
HETATM   13  C   UNL     1      27.484   9.624 -19.999  1.00  0.00     0.016 A 
HETATM   14  C   UNL     1      27.505   9.649 -21.396  1.00  0.00     0.030 A 
HETATM   15  C   UNL     1      26.327   9.455 -22.149  1.00  0.00     0.029 A 
HETATM   16  C   UNL     1      25.131   9.222 -21.438  1.00  0.00     0.030 A 
HETATM   17  C   UNL     1      25.116   9.193 -20.041  1.00  0.00     0.016 A 
BRANCH  15  18
HETATM   18  N   UNL     1      26.347   9.481 -23.593  1.00  0.00    -0.390 N 
HETATM   19  C   UNL     1      27.598   9.674 -24.314  1.00  0.00     0.149 C 
HETATM   20  C   UNL     1      25.117   9.316 -24.355  1.00  0.00     0.149 C 
ENDBRANCH  15  18
ENDBRANCH   4  12
TORSDOF 2
ENDMDL
MODEL 14
REMARK VINA RESULT:      -8.6      2.309      8.083
REMARK  2 active torsions:
REMARK  status: ('A' for Active; 'I' for Inactive)
REMARK    1  A    between atoms: N_3  and  C_15 
REMARK    2  A    between atoms: C_5  and  C_7 
ROOT
HETATM    1  S   UNL     1      27.958   9.538 -15.666  1.00  0.00    -0.069 SA
HETATM    2  N   UNL     1      25.649   9.350 -14.638  1.00  0.00    -0.344 N 
HETATM    3  C   UNL     1      25.497   9.323 -16.001  1.00  0.00     0.052 A 
HETATM    4  C   UNL     1      26.976   9.439 -14.282  1.00  0.00     0.087 A 
HETATM    5  C   UNL     1      26.675   9.417 -16.725  1.00  0.00     0.034 A 
HETATM    6  C   UNL     1      24.276   9.228 -16.691  1.00  0.00     0.031 A 
HETATM    7  C   UNL     1      26.708   9.415 -18.116  1.00  0.00     0.028 A 
HETATM    8  C   UNL     1      24.485   9.350 -13.741  1.00  0.00     0.157 C 
HETATM    9  C   UNL     1      25.490   9.313 -18.814  1.00  0.00    -0.061 A 
HETATM   10  C   UNL     1      24.279   9.221 -18.095  1.00  0.00     0.009 A 
HETATM   11  C   UNL     1      25.465   9.305 -20.313  1.00  0.00     0.048 C 
ENDROOT
BRANCH   4  12
HETATM   12  C   UNL     1      27.574   9.422 -12.908  1.00  0.00    -0.002 A 
HETATM   13  C   UNL     1      28.957   9.308 -12.676  1.00  0.00     0.016 A 
HETATM   14  C   UNL     1      29.474   9.319 -11.377  1.00  0.00     0.030 A 
HETATM   15  C   UNL     1      28.631   9.455 -10.254  1.00  0.00     0.029 A 
HETATM   16  C   UNL     1      27.247   9.593 -10.493  1.00  0.00     0.030 A 
HETATM   17  C   UNL     1      26.734   9.585 -11.792  1.00  0.00     0.016 A 
BRANCH  15  18
HETATM   18  N   UNL     1      29.165   9.466  -8.912  1.00  0.00    -0.390 N 
HETATM   19  C   UNL     1      30.567   9.781  -8.674  1.00  0.00     0.149 C 
HETATM   20  C   UNL     1      28.312   9.162  -7.772  1.00  0.00     0.149 C 
ENDBRANCH  15  18
ENDBRANCH   4  12
TORSDOF 2
ENDMDL
MODEL 15
REMARK VINA RESULT:      -8.4     26.307     27.851
REMARK  2 active torsions:
REMARK  status: ('A' for Active; 'I' for Inactive)
REMARK    1  A    between atoms: N_3  and  C_15 
REMARK    2  A    between atoms: C_5  and  C_7 
ROOT
HETATM    1  S   UNL     1      37.725 -15.250 -15.223  1.00  0.00    -0.069 SA
HETATM    2  N   UNL     1      35.195 -15.109 -15.264  1.00  0.00    -0.344 N 
HETATM    3  C   UNL     1      35.627 -15.154 -16.566  1.00  0.00     0.052 A 
HETATM    4  C   UNL     1      36.249 -15.182 -14.382  1.00  0.00     0.087 A 
HETATM    5  C   UNL     1      37.001 -15.234 -16.725  1.00  0.00     0.034 A 
HETATM    6  C   UNL     1      34.807 -15.110 -17.707  1.00  0.00     0.031 A 
HETATM    7  C   UNL     1      37.614 -15.280 -17.974  1.00  0.00     0.028 A 
HETATM    8  C   UNL     1      33.773 -14.932 -14.940  1.00  0.00     0.157 C 
HETATM    9  C   UNL     1      36.800 -15.243 -19.121  1.00  0.00    -0.061 A 
HETATM   10  C   UNL     1      35.398 -15.157 -18.980  1.00  0.00     0.009 A 
HETATM   11  C   UNL     1      37.405 -15.290 -20.492  1.00  0.00     0.048 C 
ENDROOT
BRANCH   4  12
HETATM   12  C   UNL     1      36.208 -15.237 -12.885  1.00  0.00    -0.002 A 
HETATM   13  C   UNL     1      35.127 -14.746 -12.131  1.00  0.00     0.016 A 
HETATM   14  C   UNL     1      35.120 -14.838 -10.736  1.00  0.00     0.030 A 
HETATM   15  C   UNL     1      36.190 -15.434 -10.035  1.00  0.00     0.029 A 
HETATM   16  C   UNL     1      37.262 -15.945 -10.798  1.00  0.00     0.030 A 
HETATM   17  C   UNL     1      37.264 -15.855 -12.192  1.00  0.00     0.016 A 
BRANCH  15  18
HETATM   18  N   UNL     1      36.184 -15.528  -8.594  1.00  0.00    -0.390 N 
HETATM   19  C   UNL     1      34.959 -15.854  -7.877  1.00  0.00     0.149 C 
HETATM   20  C   UNL     1      37.403 -15.298  -7.830  1.00  0.00     0.149 C 
ENDBRANCH  15  18
ENDBRANCH   4  12
TORSDOF 2
ENDMDL
MODEL 16
REMARK VINA RESULT:      -8.2     26.196     26.686
REMARK  2 active torsions:
REMARK  status: ('A' for Active; 'I' for Inactive)
REMARK    1  A    between atoms: N_3  and  C_15 
REMARK    2  A    between atoms: C_5  and  C_7 
ROOT
HETATM    1  S   UNL     1      37.588 -15.349 -12.765  1.00  0.00    -0.069 SA
HETATM    2  N   UNL     1      35.057 -15.224 -12.773  1.00  0.00    -0.344 N 
HETATM    3  C   UNL     1      35.467 -15.211 -11.464  1.00  0.00     0.052 A 
HETATM    4  C   UNL     1      36.130 -15.272 -13.635  1.00  0.00     0.087 A 
HETATM    5  C   UNL     1      36.838 -15.273 -11.278  1.00  0.00     0.034 A 
HETATM    6  C   UNL     1      34.625 -15.155 -10.339  1.00  0.00     0.031 A 
HETATM    7  C   UNL     1      37.429 -15.279 -10.017  1.00  0.00     0.028 A 
HETATM    8  C   UNL     1      33.630 -15.254 -13.124  1.00  0.00     0.157 C 
HETATM    9  C   UNL     1      36.594 -15.217  -8.886  1.00  0.00    -0.061 A 
HETATM   10  C   UNL     1      35.194 -15.157  -9.055  1.00  0.00     0.009 A 
HETATM   11  C   UNL     1      37.175 -15.219  -7.504  1.00  0.00     0.048 C 
ENDROOT
BRANCH   4  12
HETATM   12  C   UNL     1      36.123 -15.229 -15.132  1.00  0.00    -0.002 A 
HETATM   13  C   UNL     1      35.059 -14.690 -15.878  1.00  0.00     0.016 A 
HETATM   14  C   UNL     1      35.103 -14.650 -17.275  1.00  0.00     0.030 A 
HETATM   15  C   UNL     1      36.219 -15.139 -17.986  1.00  0.00     0.029 A 
HETATM   16  C   UNL     1      37.294 -15.659 -17.233  1.00  0.00     0.030 A 
HETATM   17  C   UNL     1      37.248 -15.693 -15.837  1.00  0.00     0.016 A 
BRANCH  15  18
HETATM   18  N   UNL     1      36.266 -15.100 -19.429  1.00  0.00    -0.390 N 
HETATM   19  C   UNL     1      37.537 -15.200 -20.133  1.00  0.00     0.149 C 
HETATM   20  C   UNL     1      35.044 -14.957 -20.208  1.00  0.00     0.149 C 
ENDBRANCH  15  18
ENDBRANCH   4  12
TORSDOF 2
ENDMDL
MODEL 17
REMARK VINA RESULT:      -8.2     26.228     26.932
REMARK  2 active torsions:
REMARK  status: ('A' for Active; 'I' for Inactive)
REMARK    1  A    between atoms: N_3  and  C_15 
REMARK    2  A    between atoms: C_5  and  C_7 
ROOT
HETATM    1  S   UNL     1      37.761 -15.328 -15.117  1.00  0.00    -0.069 SA
HETATM    2  N   UNL     1      35.240 -15.087 -15.195  1.00  0.00    -0.344 N 
HETATM    3  C   UNL     1      35.611 -15.120 -13.874  1.00  0.00     0.052 A 
HETATM    4  C   UNL     1      36.334 -15.165 -16.026  1.00  0.00     0.087 A 
HETATM    5  C   UNL     1      36.972 -15.249 -13.651  1.00  0.00     0.034 A 
HETATM    6  C   UNL     1      34.739 -15.050 -12.773  1.00  0.00     0.031 A 
HETATM    7  C   UNL     1      37.524 -15.308 -12.374  1.00  0.00     0.028 A 
HETATM    8  C   UNL     1      33.824 -15.044 -15.588  1.00  0.00     0.157 C 
HETATM    9  C   UNL     1      36.659 -15.232 -11.266  1.00  0.00    -0.061 A 
HETATM   10  C   UNL     1      35.269 -15.104 -11.474  1.00  0.00     0.009 A 
HETATM   11  C   UNL     1      37.198 -15.289  -9.869  1.00  0.00     0.048 C 
ENDROOT
BRANCH   4  12
HETATM   12  C   UNL     1      36.374 -15.091 -17.522  1.00  0.00    -0.002 A 
HETATM   13  C   UNL     1      37.553 -15.271 -18.267  1.00  0.00     0.016 A 
HETATM   14  C   UNL     1      37.540 -15.215 -19.664  1.00  0.00     0.030 A 
HETATM   15  C   UNL     1      36.345 -14.987 -20.377  1.00  0.00     0.029 A 
HETATM   16  C   UNL     1      35.160 -14.829 -19.627  1.00  0.00     0.030 A 
HETATM   17  C   UNL     1      35.176 -14.890 -18.231  1.00  0.00     0.016 A 
BRANCH  15  18
HETATM   18  N   UNL     1      36.331 -14.928 -21.820  1.00  0.00    -0.390 N 
HETATM   19  C   UNL     1      37.449 -15.449 -22.594  1.00  0.00     0.149 C 
HETATM   20  C   UNL     1      35.199 -14.346 -22.528  1.00  0.00     0.149 C 
ENDBRANCH  15  18
ENDBRANCH   4  12
TORSDOF 2
ENDMDL
MODEL 18
REMARK VINA RESULT:      -8.2     26.609     28.631
REMARK  2 active torsions:
REMARK  status: ('A' for Active; 'I' for Inactive)
REMARK    1  A    between atoms: N_3  and  C_15 
REMARK    2  A    between atoms: C_5  and  C_7 
ROOT
HETATM    1  S   UNL     1      37.689 -15.250 -19.995  1.00  0.00    -0.069 SA
HETATM    2  N   UNL     1      35.158 -15.136 -20.046  1.00  0.00    -0.344 N 
HETATM    3  C   UNL     1      35.596 -15.180 -21.346  1.00  0.00     0.052 A 
HETATM    4  C   UNL     1      36.210 -15.196 -19.160  1.00  0.00     0.087 A 
HETATM    5  C   UNL     1      36.971 -15.245 -21.500  1.00  0.00     0.034 A 
HETATM    6  C   UNL     1      34.780 -15.148 -22.490  1.00  0.00     0.031 A 
HETATM    7  C   UNL     1      37.589 -15.287 -22.747  1.00  0.00     0.028 A 
HETATM    8  C   UNL     1      33.733 -14.974 -19.727  1.00  0.00     0.157 C 
HETATM    9  C   UNL     1      36.779 -15.262 -23.897  1.00  0.00    -0.061 A 
HETATM   10  C   UNL     1      35.376 -15.191 -23.761  1.00  0.00     0.009 A 
HETATM   11  C   UNL     1      37.390 -15.306 -25.265  1.00  0.00     0.048 C 
ENDROOT
BRANCH   4  12
HETATM   12  C   UNL     1      36.164 -15.247 -17.663  1.00  0.00    -0.002 A 
HETATM   13  C   UNL     1      34.992 -15.004 -16.925  1.00  0.00     0.016 A 
HETATM   14  C   UNL     1      34.988 -15.085 -15.529  1.00  0.00     0.030 A 
HETATM   15  C   UNL     1      36.156 -15.422 -14.812  1.00  0.00     0.029 A 
HETATM   16  C   UNL     1      37.324 -15.687 -15.558  1.00  0.00     0.030 A 
HETATM   17  C   UNL     1      37.322 -15.610 -16.953  1.00  0.00     0.016 A 
BRANCH  15  18
HETATM   18  N   UNL     1      36.153 -15.504 -13.370  1.00  0.00    -0.390 N 
HETATM   19  C   UNL     1      34.914 -15.746 -12.643  1.00  0.00     0.149 C 
HETATM   20  C   UNL     1      37.389 -15.347 -12.616  1.00  0.00     0.149 C 
ENDBRANCH  15  18
ENDBRANCH   4  12
TORSDOF 2
ENDMDL
MODEL 19
REMARK VINA RESULT:      -8.1     25.921     26.417
REMARK  2 active torsions:
REMARK  status: ('A' for Active; 'I' for Inactive)
REMARK    1  A    between atoms: N_3  and  C_15 
REMARK    2  A    between atoms: C_5  and  C_7 
ROOT
HETATM    1  S   UNL     1      34.262 -14.937 -13.510  1.00  0.00    -0.069 SA
HETATM    2  N   UNL     1      36.754 -15.161 -13.911  1.00  0.00    -0.344 N 
HETATM    3  C   UNL     1      36.550 -15.195 -12.555  1.00  0.00     0.052 A 
HETATM    4  C   UNL     1      35.565 -15.048 -14.596  1.00  0.00     0.087 A 
HETATM    5  C   UNL     1      35.226 -15.083 -12.158  1.00  0.00     0.034 A 
HETATM    6  C   UNL     1      37.550 -15.314 -11.574  1.00  0.00     0.031 A 
HETATM    7  C   UNL     1      34.837 -15.089 -10.822  1.00  0.00     0.028 A 
HETATM    8  C   UNL     1      38.110 -15.179 -14.478  1.00  0.00     0.157 C 
HETATM    9  C   UNL     1      35.832 -15.213  -9.835  1.00  0.00    -0.061 A 
HETATM   10  C   UNL     1      37.185 -15.325 -10.219  1.00  0.00     0.009 A 
HETATM   11  C   UNL     1      35.470 -15.227  -8.380  1.00  0.00     0.048 C 
ENDROOT
BRANCH   4  12
HETATM   12  C   UNL     1      35.341 -15.050 -16.077  1.00  0.00    -0.002 A 
HETATM   13  C   UNL     1      35.879 -16.029 -16.932  1.00  0.00     0.016 A 
HETATM   14  C   UNL     1      35.626 -16.005 -18.307  1.00  0.00     0.030 A 
HETATM   15  C   UNL     1      34.815 -15.006 -18.885  1.00  0.00     0.029 A 
HETATM   16  C   UNL     1      34.258 -14.040 -18.021  1.00  0.00     0.030 A 
HETATM   17  C   UNL     1      34.509 -14.069 -16.647  1.00  0.00     0.016 A 
BRANCH  15  18
HETATM   18  N   UNL     1      34.553 -14.980 -20.305  1.00  0.00    -0.390 N 
HETATM   19  C   UNL     1      33.186 -14.975 -20.807  1.00  0.00     0.149 C 
HETATM   20  C   UNL     1      35.651 -14.961 -21.261  1.00  0.00     0.149 C 
ENDBRANCH  15  18
ENDBRANCH   4  12
TORSDOF 2
ENDMDL
MODEL 20
REMARK VINA RESULT:      -8.0     25.870     27.293
REMARK  2 active torsions:
REMARK  status: ('A' for Active; 'I' for Inactive)
REMARK    1  A    between atoms: N_3  and  C_15 
REMARK    2  A    between atoms: C_5  and  C_7 
ROOT
HETATM    1  S   UNL     1      34.199 -15.155 -17.383  1.00  0.00    -0.069 SA
HETATM    2  N   UNL     1      36.455 -15.198 -16.230  1.00  0.00    -0.344 N 
HETATM    3  C   UNL     1      36.683 -15.192 -17.583  1.00  0.00     0.052 A 
HETATM    4  C   UNL     1      35.108 -15.151 -15.947  1.00  0.00     0.087 A 
HETATM    5  C   UNL     1      35.543 -15.169 -18.370  1.00  0.00     0.034 A 
HETATM    6  C   UNL     1      37.944 -15.222 -18.205  1.00  0.00     0.031 A 
HETATM    7  C   UNL     1      35.587 -15.168 -19.761  1.00  0.00     0.028 A 
HETATM    8  C   UNL     1      37.563 -15.312 -15.271  1.00  0.00     0.157 C 
HETATM    9  C   UNL     1      36.845 -15.193 -20.391  1.00  0.00    -0.061 A 
HETATM   10  C   UNL     1      38.018 -15.221 -19.607  1.00  0.00     0.009 A 
HETATM   11  C   UNL     1      36.952 -15.193 -21.887  1.00  0.00     0.048 C 
ENDROOT
BRANCH   4  12
HETATM   12  C   UNL     1      34.441 -15.069 -14.608  1.00  0.00    -0.002 A 
HETATM   13  C   UNL     1      35.118 -14.684 -13.438  1.00  0.00     0.016 A 
HETATM   14  C   UNL     1      34.451 -14.599 -12.212  1.00  0.00     0.030 A 
HETATM   15  C   UNL     1      33.074 -14.887 -12.107  1.00  0.00     0.029 A 
HETATM   16  C   UNL     1      32.393 -15.251 -13.288  1.00  0.00     0.030 A 
HETATM   17  C   UNL     1      33.062 -15.330 -14.512  1.00  0.00     0.016 A 
BRANCH  15  18
HETATM   18  N   UNL     1      32.384 -14.801 -10.841  1.00  0.00    -0.390 N 
HETATM   19  C   UNL     1      30.963 -14.480 -10.791  1.00  0.00     0.149 C 
HETATM   20  C   UNL     1      33.094 -15.031  -9.591  1.00  0.00     0.149 C 
ENDBRANCH  15  18
ENDBRANCH   4  12
TORSDOF 2
ENDMDL
