MODEL 1
REMARK VINA RESULT:      -4.9      0.000      0.000
REMARK  19 active torsions:
REMARK  status: ('A' for Active; 'I' for Inactive)
REMARK    1  A    between atoms: O_1  and  C_22 
REMARK    2  A    between atoms: C_3  and  C_4 
REMARK    3  A    between atoms: C_3  and  C_5 
REMARK    4  A    between atoms: C_4  and  C_6 
REMARK    5  A    between atoms: C_5  and  C_7 
REMARK    6  A    between atoms: C_6  and  C_8 
REMARK    7  A    between atoms: C_7  and  C_9 
REMARK    8  A    between atoms: C_8  and  C_10 
REMARK    9  A    between atoms: C_9  and  C_11 
REMARK   10  A    between atoms: C_10  and  C_12 
REMARK   11  A    between atoms: C_11  and  C_13 
REMARK   12  A    between atoms: C_12  and  C_14 
REMARK   13  A    between atoms: C_13  and  C_15 
REMARK   14  A    between atoms: C_14  and  C_16 
REMARK   15  A    between atoms: C_15  and  C_17 
REMARK   16  A    between atoms: C_16  and  C_18 
REMARK   17  A    between atoms: C_17  and  C_19 
REMARK   18  A    between atoms: C_18  and  C_20 
REMARK   19  A    between atoms: C_20  and  C_22 
ROOT
HETATM    1  O   UNL     1      36.221  -8.929  -7.261  1.00  0.00    -0.776 OA
HETATM    2  H   UNL     1      36.977  -9.013  -7.859  1.00  0.00     0.167 HD
ENDROOT
BRANCH   1   3
HETATM    3  C   UNL     1      34.954  -8.890  -7.725  1.00  0.00     0.139 C 
HETATM    4  O   UNL     1      34.683  -8.190  -8.690  1.00  0.00    -0.650 OA
BRANCH   3   5
HETATM    5  C   UNL     1      33.865  -9.672  -7.039  1.00  0.00     0.110 C 
BRANCH   5   6
HETATM    6  C   UNL     1      33.703 -11.106  -7.576  1.00  0.00     0.010 C 
BRANCH   6   7
HETATM    7  C   UNL     1      33.073 -12.122  -6.602  1.00  0.00     0.001 C 
BRANCH   7   8
HETATM    8  C   UNL     1      31.556 -12.335  -6.776  1.00  0.00     0.000 C 
BRANCH   8   9
HETATM    9  C   UNL     1      30.980 -13.562  -6.040  1.00  0.00     0.000 C 
BRANCH   9  10
HETATM   10  C   UNL     1      31.117 -14.899  -6.793  1.00  0.00     0.000 C 
BRANCH  10  11
HETATM   11  C   UNL     1      31.324 -14.772  -8.316  1.00  0.00     0.000 C 
BRANCH  11  12
HETATM   12  C   UNL     1      32.622 -15.408  -8.854  1.00  0.00     0.000 C 
BRANCH  12  13
HETATM   13  C   UNL     1      33.546 -16.014  -7.779  1.00  0.00     0.000 C 
BRANCH  13  14
HETATM   14  C   UNL     1      34.834 -15.215  -7.501  1.00  0.00     0.000 C 
BRANCH  14  15
HETATM   15  C   UNL     1      35.492 -14.583  -8.744  1.00  0.00     0.000 C 
BRANCH  15  16
HETATM   16  C   UNL     1      36.224 -15.575  -9.671  1.00  0.00     0.000 C 
BRANCH  16  17
HETATM   17  C   UNL     1      37.084 -14.924 -10.773  1.00  0.00     0.000 C 
BRANCH  17  18
HETATM   18  C   UNL     1      36.973 -15.582 -12.163  1.00  0.00     0.000 C 
BRANCH  18  19
HETATM   19  C   UNL     1      35.558 -16.058 -12.547  1.00  0.00     0.000 C 
BRANCH  19  20
HETATM   20  C   UNL     1      34.655 -14.980 -13.179  1.00  0.00     0.000 C 
BRANCH  20  21
HETATM   21  C   UNL     1      33.596 -14.380 -12.232  1.00  0.00    -0.000 C 
BRANCH  21  22
HETATM   22  C   UNL     1      33.601 -12.844 -12.132  1.00  0.00    -0.005 C 
HETATM   23  C   UNL     1      32.720 -12.311 -11.003  1.00  0.00     0.005 C 
ENDBRANCH  21  22
ENDBRANCH  20  21
ENDBRANCH  19  20
ENDBRANCH  18  19
ENDBRANCH  17  18
ENDBRANCH  16  17
ENDBRANCH  15  16
ENDBRANCH  14  15
ENDBRANCH  13  14
ENDBRANCH  12  13
ENDBRANCH  11  12
ENDBRANCH  10  11
ENDBRANCH   9  10
ENDBRANCH   8   9
ENDBRANCH   7   8
ENDBRANCH   6   7
ENDBRANCH   5   6
ENDBRANCH   3   5
ENDBRANCH   1   3
TORSDOF 19
ENDMDL
MODEL 2
REMARK VINA RESULT:      -4.8      6.189      9.508
REMARK  19 active torsions:
REMARK  status: ('A' for Active; 'I' for Inactive)
REMARK    1  A    between atoms: O_1  and  C_22 
REMARK    2  A    between atoms: C_3  and  C_4 
REMARK    3  A    between atoms: C_3  and  C_5 
REMARK    4  A    between atoms: C_4  and  C_6 
REMARK    5  A    between atoms: C_5  and  C_7 
REMARK    6  A    between atoms: C_6  and  C_8 
REMARK    7  A    between atoms: C_7  and  C_9 
REMARK    8  A    between atoms: C_8  and  C_10 
REMARK    9  A    between atoms: C_9  and  C_11 
REMARK   10  A    between atoms: C_10  and  C_12 
REMARK   11  A    between atoms: C_11  and  C_13 
REMARK   12  A    between atoms: C_12  and  C_14 
REMARK   13  A    between atoms: C_13  and  C_15 
REMARK   14  A    between atoms: C_14  and  C_16 
REMARK   15  A    between atoms: C_15  and  C_17 
REMARK   16  A    between atoms: C_16  and  C_18 
REMARK   17  A    between atoms: C_17  and  C_19 
REMARK   18  A    between atoms: C_18  and  C_20 
REMARK   19  A    between atoms: C_20  and  C_22 
ROOT
HETATM    1  O   UNL     1      31.100 -14.574 -21.529  1.00  0.00    -0.776 OA
HETATM    2  H   UNL     1      30.748 -14.576 -22.430  1.00  0.00     0.167 HD
ENDROOT
BRANCH   1   3
HETATM    3  C   UNL     1      30.974 -13.497 -20.725  1.00  0.00     0.139 C 
HETATM    4  O   UNL     1      30.351 -12.520 -21.113  1.00  0.00    -0.650 OA
BRANCH   3   5
HETATM    5  C   UNL     1      31.629 -13.476 -19.369  1.00  0.00     0.110 C 
BRANCH   5   6
HETATM    6  C   UNL     1      33.067 -14.027 -19.370  1.00  0.00     0.010 C 
BRANCH   6   7
HETATM    7  C   UNL     1      33.222 -15.504 -18.954  1.00  0.00     0.001 C 
BRANCH   7   8
HETATM    8  C   UNL     1      34.049 -15.736 -17.673  1.00  0.00     0.000 C 
BRANCH   8   9
HETATM    9  C   UNL     1      35.251 -14.787 -17.491  1.00  0.00     0.000 C 
BRANCH   9  10
HETATM   10  C   UNL     1      36.631 -15.428 -17.733  1.00  0.00     0.000 C 
BRANCH  10  11
HETATM   11  C   UNL     1      37.351 -15.926 -16.464  1.00  0.00     0.000 C 
BRANCH  11  12
HETATM   12  C   UNL     1      37.190 -15.022 -15.225  1.00  0.00     0.000 C 
BRANCH  12  13
HETATM   13  C   UNL     1      38.172 -15.313 -14.073  1.00  0.00     0.000 C 
BRANCH  13  14
HETATM   14  C   UNL     1      37.564 -15.223 -12.659  1.00  0.00     0.000 C 
BRANCH  14  15
HETATM   15  C   UNL     1      36.077 -15.621 -12.561  1.00  0.00     0.000 C 
BRANCH  15  16
HETATM   16  C   UNL     1      35.081 -14.446 -12.630  1.00  0.00     0.000 C 
BRANCH  16  17
HETATM   17  C   UNL     1      33.668 -14.757 -12.094  1.00  0.00     0.000 C 
BRANCH  17  18
HETATM   18  C   UNL     1      32.850 -15.746 -12.947  1.00  0.00     0.000 C 
BRANCH  18  19
HETATM   19  C   UNL     1      32.606 -15.306 -14.404  1.00  0.00     0.000 C 
BRANCH  19  20
HETATM   20  C   UNL     1      31.379 -14.397 -14.616  1.00  0.00     0.000 C 
BRANCH  20  21
HETATM   21  C   UNL     1      31.554 -13.304 -15.691  1.00  0.00    -0.000 C 
BRANCH  21  22
HETATM   22  C   UNL     1      32.796 -12.411 -15.522  1.00  0.00    -0.005 C 
HETATM   23  C   UNL     1      32.973 -11.403 -16.656  1.00  0.00     0.005 C 
ENDBRANCH  21  22
ENDBRANCH  20  21
ENDBRANCH  19  20
ENDBRANCH  18  19
ENDBRANCH  17  18
ENDBRANCH  16  17
ENDBRANCH  15  16
ENDBRANCH  14  15
ENDBRANCH  13  14
ENDBRANCH  12  13
ENDBRANCH  11  12
ENDBRANCH  10  11
ENDBRANCH   9  10
ENDBRANCH   8   9
ENDBRANCH   7   8
ENDBRANCH   6   7
ENDBRANCH   5   6
ENDBRANCH   3   5
ENDBRANCH   1   3
TORSDOF 19
ENDMDL
MODEL 3
REMARK VINA RESULT:      -4.8      5.951      8.688
REMARK  19 active torsions:
REMARK  status: ('A' for Active; 'I' for Inactive)
REMARK    1  A    between atoms: O_1  and  C_22 
REMARK    2  A    between atoms: C_3  and  C_4 
REMARK    3  A    between atoms: C_3  and  C_5 
REMARK    4  A    between atoms: C_4  and  C_6 
REMARK    5  A    between atoms: C_5  and  C_7 
REMARK    6  A    between atoms: C_6  and  C_8 
REMARK    7  A    between atoms: C_7  and  C_9 
REMARK    8  A    between atoms: C_8  and  C_10 
REMARK    9  A    between atoms: C_9  and  C_11 
REMARK   10  A    between atoms: C_10  and  C_12 
REMARK   11  A    between atoms: C_11  and  C_13 
REMARK   12  A    between atoms: C_12  and  C_14 
REMARK   13  A    between atoms: C_13  and  C_15 
REMARK   14  A    between atoms: C_14  and  C_16 
REMARK   15  A    between atoms: C_15  and  C_17 
REMARK   16  A    between atoms: C_16  and  C_18 
REMARK   17  A    between atoms: C_17  and  C_19 
REMARK   18  A    between atoms: C_18  and  C_20 
REMARK   19  A    between atoms: C_20  and  C_22 
ROOT
HETATM    1  O   UNL     1      30.396 -14.587 -21.217  1.00  0.00    -0.776 OA
HETATM    2  H   UNL     1      29.620 -14.991 -20.805  1.00  0.00     0.167 HD
ENDROOT
BRANCH   1   3
HETATM    3  C   UNL     1      31.594 -14.562 -20.594  1.00  0.00     0.139 C 
HETATM    4  O   UNL     1      32.618 -14.713 -21.244  1.00  0.00    -0.650 OA
BRANCH   3   5
HETATM    5  C   UNL     1      31.674 -14.390 -19.101  1.00  0.00     0.110 C 
BRANCH   5   6
HETATM    6  C   UNL     1      31.745 -12.918 -18.652  1.00  0.00     0.010 C 
BRANCH   6   7
HETATM    7  C   UNL     1      32.934 -12.549 -17.742  1.00  0.00     0.001 C 
BRANCH   7   8
HETATM    8  C   UNL     1      32.563 -11.742 -16.481  1.00  0.00     0.000 C 
BRANCH   8   9
HETATM    9  C   UNL     1      32.722 -12.503 -15.149  1.00  0.00     0.000 C 
BRANCH   9  10
HETATM   10  C   UNL     1      33.234 -13.950 -15.282  1.00  0.00     0.000 C 
BRANCH  10  11
HETATM   11  C   UNL     1      32.297 -15.030 -14.702  1.00  0.00     0.000 C 
BRANCH  11  12
HETATM   12  C   UNL     1      32.689 -15.553 -13.306  1.00  0.00     0.000 C 
BRANCH  12  13
HETATM   13  C   UNL     1      32.692 -14.491 -12.188  1.00  0.00     0.000 C 
BRANCH  13  14
HETATM   14  C   UNL     1      34.063 -14.243 -11.528  1.00  0.00     0.000 C 
BRANCH  14  15
HETATM   15  C   UNL     1      35.042 -15.432 -11.591  1.00  0.00     0.000 C 
BRANCH  15  16
HETATM   16  C   UNL     1      36.532 -15.060 -11.449  1.00  0.00     0.000 C 
BRANCH  16  17
HETATM   17  C   UNL     1      37.483 -15.800 -12.412  1.00  0.00     0.000 C 
BRANCH  17  18
HETATM   18  C   UNL     1      37.769 -15.068 -13.738  1.00  0.00     0.000 C 
BRANCH  18  19
HETATM   19  C   UNL     1      36.624 -15.118 -14.770  1.00  0.00     0.000 C 
BRANCH  19  20
HETATM   20  C   UNL     1      36.804 -16.155 -15.896  1.00  0.00     0.000 C 
BRANCH  20  21
HETATM   21  C   UNL     1      37.307 -15.582 -17.237  1.00  0.00    -0.000 C 
BRANCH  21  22
HETATM   22  C   UNL     1      36.219 -15.355 -18.302  1.00  0.00    -0.005 C 
HETATM   23  C   UNL     1      34.877 -15.989 -17.937  1.00  0.00     0.005 C 
ENDBRANCH  21  22
ENDBRANCH  20  21
ENDBRANCH  19  20
ENDBRANCH  18  19
ENDBRANCH  17  18
ENDBRANCH  16  17
ENDBRANCH  15  16
ENDBRANCH  14  15
ENDBRANCH  13  14
ENDBRANCH  12  13
ENDBRANCH  11  12
ENDBRANCH  10  11
ENDBRANCH   9  10
ENDBRANCH   8   9
ENDBRANCH   7   8
ENDBRANCH   6   7
ENDBRANCH   5   6
ENDBRANCH   3   5
ENDBRANCH   1   3
TORSDOF 19
ENDMDL
MODEL 4
REMARK VINA RESULT:      -4.7      8.049     11.753
REMARK  19 active torsions:
REMARK  status: ('A' for Active; 'I' for Inactive)
REMARK    1  A    between atoms: O_1  and  C_22 
REMARK    2  A    between atoms: C_3  and  C_4 
REMARK    3  A    between atoms: C_3  and  C_5 
REMARK    4  A    between atoms: C_4  and  C_6 
REMARK    5  A    between atoms: C_5  and  C_7 
REMARK    6  A    between atoms: C_6  and  C_8 
REMARK    7  A    between atoms: C_7  and  C_9 
REMARK    8  A    between atoms: C_8  and  C_10 
REMARK    9  A    between atoms: C_9  and  C_11 
REMARK   10  A    between atoms: C_10  and  C_12 
REMARK   11  A    between atoms: C_11  and  C_13 
REMARK   12  A    between atoms: C_12  and  C_14 
REMARK   13  A    between atoms: C_13  and  C_15 
REMARK   14  A    between atoms: C_14  and  C_16 
REMARK   15  A    between atoms: C_15  and  C_17 
REMARK   16  A    between atoms: C_16  and  C_18 
REMARK   17  A    between atoms: C_17  and  C_19 
REMARK   18  A    between atoms: C_18  and  C_20 
REMARK   19  A    between atoms: C_20  and  C_22 
ROOT
HETATM    1  O   UNL     1      36.251  -8.277 -21.494  1.00  0.00    -0.776 OA
HETATM    2  H   UNL     1      36.065  -7.581 -20.848  1.00  0.00     0.167 HD
ENDROOT
BRANCH   1   3
HETATM    3  C   UNL     1      35.265  -8.855 -22.213  1.00  0.00     0.139 C 
HETATM    4  O   UNL     1      35.275  -8.772 -23.432  1.00  0.00    -0.650 OA
BRANCH   3   5
HETATM    5  C   UNL     1      34.132  -9.566 -21.521  1.00  0.00     0.110 C 
BRANCH   5   6
HETATM    6  C   UNL     1      33.738 -10.896 -22.189  1.00  0.00     0.010 C 
BRANCH   6   7
HETATM    7  C   UNL     1      32.574 -11.663 -21.529  1.00  0.00     0.001 C 
BRANCH   7   8
HETATM    8  C   UNL     1      32.129 -12.937 -22.275  1.00  0.00     0.000 C 
BRANCH   8   9
HETATM    9  C   UNL     1      32.102 -14.219 -21.419  1.00  0.00     0.000 C 
BRANCH   9  10
HETATM   10  C   UNL     1      33.266 -15.197 -21.670  1.00  0.00     0.000 C 
BRANCH  10  11
HETATM   11  C   UNL     1      34.554 -14.550 -22.219  1.00  0.00     0.000 C 
BRANCH  11  12
HETATM   12  C   UNL     1      35.762 -14.588 -21.262  1.00  0.00     0.000 C 
BRANCH  12  13
HETATM   13  C   UNL     1      35.622 -15.557 -20.071  1.00  0.00     0.000 C 
BRANCH  13  14
HETATM   14  C   UNL     1      35.587 -14.886 -18.684  1.00  0.00     0.000 C 
BRANCH  14  15
HETATM   15  C   UNL     1      34.175 -14.598 -18.134  1.00  0.00     0.000 C 
BRANCH  15  16
HETATM   16  C   UNL     1      33.732 -13.123 -18.212  1.00  0.00     0.000 C 
BRANCH  16  17
HETATM   17  C   UNL     1      32.231 -12.878 -17.954  1.00  0.00     0.000 C 
BRANCH  17  18
HETATM   18  C   UNL     1      31.418 -14.137 -17.590  1.00  0.00     0.000 C 
BRANCH  18  19
HETATM   19  C   UNL     1      30.836 -14.147 -16.163  1.00  0.00     0.000 C 
BRANCH  19  20
HETATM   20  C   UNL     1      31.496 -13.159 -15.181  1.00  0.00     0.000 C 
BRANCH  20  21
HETATM   21  C   UNL     1      32.708 -13.718 -14.408  1.00  0.00    -0.000 C 
BRANCH  21  22
HETATM   22  C   UNL     1      32.682 -15.236 -14.157  1.00  0.00    -0.005 C 
HETATM   23  C   UNL     1      33.653 -15.684 -13.066  1.00  0.00     0.005 C 
ENDBRANCH  21  22
ENDBRANCH  20  21
ENDBRANCH  19  20
ENDBRANCH  18  19
ENDBRANCH  17  18
ENDBRANCH  16  17
ENDBRANCH  15  16
ENDBRANCH  14  15
ENDBRANCH  13  14
ENDBRANCH  12  13
ENDBRANCH  11  12
ENDBRANCH  10  11
ENDBRANCH   9  10
ENDBRANCH   8   9
ENDBRANCH   7   8
ENDBRANCH   6   7
ENDBRANCH   5   6
ENDBRANCH   3   5
ENDBRANCH   1   3
TORSDOF 19
ENDMDL
MODEL 5
REMARK VINA RESULT:      -4.7      3.354      5.576
REMARK  19 active torsions:
REMARK  status: ('A' for Active; 'I' for Inactive)
REMARK    1  A    between atoms: O_1  and  C_22 
REMARK    2  A    between atoms: C_3  and  C_4 
REMARK    3  A    between atoms: C_3  and  C_5 
REMARK    4  A    between atoms: C_4  and  C_6 
REMARK    5  A    between atoms: C_5  and  C_7 
REMARK    6  A    between atoms: C_6  and  C_8 
REMARK    7  A    between atoms: C_7  and  C_9 
REMARK    8  A    between atoms: C_8  and  C_10 
REMARK    9  A    between atoms: C_9  and  C_11 
REMARK   10  A    between atoms: C_10  and  C_12 
REMARK   11  A    between atoms: C_11  and  C_13 
REMARK   12  A    between atoms: C_12  and  C_14 
REMARK   13  A    between atoms: C_13  and  C_15 
REMARK   14  A    between atoms: C_14  and  C_16 
REMARK   15  A    between atoms: C_15  and  C_17 
REMARK   16  A    between atoms: C_16  and  C_18 
REMARK   17  A    between atoms: C_17  and  C_19 
REMARK   18  A    between atoms: C_18  and  C_20 
REMARK   19  A    between atoms: C_20  and  C_22 
ROOT
HETATM    1  O   UNL     1      33.633  -7.431 -11.660  1.00  0.00    -0.776 OA
HETATM    2  H   UNL     1      34.057  -6.564 -11.593  1.00  0.00     0.167 HD
ENDROOT
BRANCH   1   3
HETATM    3  C   UNL     1      34.323  -8.572 -11.447  1.00  0.00     0.139 C 
HETATM    4  O   UNL     1      34.810  -8.789 -10.347  1.00  0.00    -0.650 OA
BRANCH   3   5
HETATM    5  C   UNL     1      34.531  -9.559 -12.565  1.00  0.00     0.110 C 
BRANCH   5   6
HETATM    6  C   UNL     1      34.059 -10.984 -12.225  1.00  0.00     0.010 C 
BRANCH   6   7
HETATM    7  C   UNL     1      32.630 -11.104 -11.658  1.00  0.00     0.001 C 
BRANCH   7   8
HETATM    8  C   UNL     1      32.150 -12.547 -11.401  1.00  0.00     0.000 C 
BRANCH   8   9
HETATM    9  C   UNL     1      32.260 -13.021  -9.938  1.00  0.00     0.000 C 
BRANCH   9  10
HETATM   10  C   UNL     1      32.874 -14.421  -9.750  1.00  0.00     0.000 C 
BRANCH  10  11
HETATM   11  C   UNL     1      34.321 -14.574 -10.261  1.00  0.00     0.000 C 
BRANCH  11  12
HETATM   12  C   UNL     1      34.472 -15.401 -11.554  1.00  0.00     0.000 C 
BRANCH  12  13
HETATM   13  C   UNL     1      34.878 -14.592 -12.802  1.00  0.00     0.000 C 
BRANCH  13  14
HETATM   14  C   UNL     1      34.086 -14.926 -14.081  1.00  0.00     0.000 C 
BRANCH  14  15
HETATM   15  C   UNL     1      32.632 -15.385 -13.848  1.00  0.00     0.000 C 
BRANCH  15  16
HETATM   16  C   UNL     1      31.553 -14.481 -14.478  1.00  0.00     0.000 C 
BRANCH  16  17
HETATM   17  C   UNL     1      32.071 -13.491 -15.542  1.00  0.00     0.000 C 
BRANCH  17  18
HETATM   18  C   UNL     1      31.068 -13.151 -16.662  1.00  0.00     0.000 C 
BRANCH  18  19
HETATM   19  C   UNL     1      31.387 -13.775 -18.035  1.00  0.00     0.000 C 
BRANCH  19  20
HETATM   20  C   UNL     1      32.075 -15.154 -17.982  1.00  0.00     0.000 C 
BRANCH  20  21
HETATM   21  C   UNL     1      33.499 -15.196 -18.572  1.00  0.00    -0.000 C 
BRANCH  21  22
HETATM   22  C   UNL     1      34.584 -15.744 -17.628  1.00  0.00    -0.005 C 
HETATM   23  C   UNL     1      35.749 -14.776 -17.422  1.00  0.00     0.005 C 
ENDBRANCH  21  22
ENDBRANCH  20  21
ENDBRANCH  19  20
ENDBRANCH  18  19
ENDBRANCH  17  18
ENDBRANCH  16  17
ENDBRANCH  15  16
ENDBRANCH  14  15
ENDBRANCH  13  14
ENDBRANCH  12  13
ENDBRANCH  11  12
ENDBRANCH  10  11
ENDBRANCH   9  10
ENDBRANCH   8   9
ENDBRANCH   7   8
ENDBRANCH   6   7
ENDBRANCH   5   6
ENDBRANCH   3   5
ENDBRANCH   1   3
TORSDOF 19
ENDMDL
MODEL 6
REMARK VINA RESULT:      -4.7      9.139     11.856
REMARK  19 active torsions:
REMARK  status: ('A' for Active; 'I' for Inactive)
REMARK    1  A    between atoms: O_1  and  C_22 
REMARK    2  A    between atoms: C_3  and  C_4 
REMARK    3  A    between atoms: C_3  and  C_5 
REMARK    4  A    between atoms: C_4  and  C_6 
REMARK    5  A    between atoms: C_5  and  C_7 
REMARK    6  A    between atoms: C_6  and  C_8 
REMARK    7  A    between atoms: C_7  and  C_9 
REMARK    8  A    between atoms: C_8  and  C_10 
REMARK    9  A    between atoms: C_9  and  C_11 
REMARK   10  A    between atoms: C_10  and  C_12 
REMARK   11  A    between atoms: C_11  and  C_13 
REMARK   12  A    between atoms: C_12  and  C_14 
REMARK   13  A    between atoms: C_13  and  C_15 
REMARK   14  A    between atoms: C_14  and  C_16 
REMARK   15  A    between atoms: C_15  and  C_17 
REMARK   16  A    between atoms: C_16  and  C_18 
REMARK   17  A    between atoms: C_17  and  C_19 
REMARK   18  A    between atoms: C_18  and  C_20 
REMARK   19  A    between atoms: C_20  and  C_22 
ROOT
HETATM    1  O   UNL     1      36.409  -8.338 -21.443  1.00  0.00    -0.776 OA
HETATM    2  H   UNL     1      36.738  -8.444 -22.347  1.00  0.00     0.167 HD
ENDROOT
BRANCH   1   3
HETATM    3  C   UNL     1      35.149  -8.686 -21.106  1.00  0.00     0.139 C 
HETATM    4  O   UNL     1      34.789  -8.605 -19.940  1.00  0.00    -0.650 OA
BRANCH   3   5
HETATM    5  C   UNL     1      34.197  -9.212 -22.147  1.00  0.00     0.110 C 
BRANCH   5   6
HETATM    6  C   UNL     1      34.054 -10.745 -22.135  1.00  0.00     0.010 C 
BRANCH   6   7
HETATM    7  C   UNL     1      32.847 -11.302 -21.354  1.00  0.00     0.001 C 
BRANCH   7   8
HETATM    8  C   UNL     1      31.967 -12.296 -22.140  1.00  0.00     0.000 C 
BRANCH   8   9
HETATM    9  C   UNL     1      31.053 -13.185 -21.272  1.00  0.00     0.000 C 
BRANCH   9  10
HETATM   10  C   UNL     1      31.766 -13.938 -20.133  1.00  0.00     0.000 C 
BRANCH  10  11
HETATM   11  C   UNL     1      31.538 -13.357 -18.723  1.00  0.00     0.000 C 
BRANCH  11  12
HETATM   12  C   UNL     1      32.532 -13.841 -17.648  1.00  0.00     0.000 C 
BRANCH  12  13
HETATM   13  C   UNL     1      33.838 -13.027 -17.553  1.00  0.00     0.000 C 
BRANCH  13  14
HETATM   14  C   UNL     1      35.090 -13.843 -17.174  1.00  0.00     0.000 C 
BRANCH  14  15
HETATM   15  C   UNL     1      35.318 -15.115 -18.015  1.00  0.00     0.000 C 
BRANCH  15  16
HETATM   16  C   UNL     1      36.748 -15.691 -17.953  1.00  0.00     0.000 C 
BRANCH  16  17
HETATM   17  C   UNL     1      37.697 -15.199 -19.065  1.00  0.00     0.000 C 
BRANCH  17  18
HETATM   18  C   UNL     1      37.421 -15.785 -20.465  1.00  0.00     0.000 C 
BRANCH  18  19
HETATM   19  C   UNL     1      37.101 -14.745 -21.556  1.00  0.00     0.000 C 
BRANCH  19  20
HETATM   20  C   UNL     1      36.962 -15.315 -22.981  1.00  0.00     0.000 C 
BRANCH  20  21
HETATM   21  C   UNL     1      35.555 -15.186 -23.601  1.00  0.00    -0.000 C 
BRANCH  21  22
HETATM   22  C   UNL     1      34.397 -15.116 -22.590  1.00  0.00    -0.005 C 
HETATM   23  C   UNL     1      33.091 -15.698 -23.127  1.00  0.00     0.005 C 
ENDBRANCH  21  22
ENDBRANCH  20  21
ENDBRANCH  19  20
ENDBRANCH  18  19
ENDBRANCH  17  18
ENDBRANCH  16  17
ENDBRANCH  15  16
ENDBRANCH  14  15
ENDBRANCH  13  14
ENDBRANCH  12  13
ENDBRANCH  11  12
ENDBRANCH  10  11
ENDBRANCH   9  10
ENDBRANCH   8   9
ENDBRANCH   7   8
ENDBRANCH   6   7
ENDBRANCH   5   6
ENDBRANCH   3   5
ENDBRANCH   1   3
TORSDOF 19
ENDMDL
MODEL 7
REMARK VINA RESULT:      -4.7      5.482      9.002
REMARK  19 active torsions:
REMARK  status: ('A' for Active; 'I' for Inactive)
REMARK    1  A    between atoms: O_1  and  C_22 
REMARK    2  A    between atoms: C_3  and  C_4 
REMARK    3  A    between atoms: C_3  and  C_5 
REMARK    4  A    between atoms: C_4  and  C_6 
REMARK    5  A    between atoms: C_5  and  C_7 
REMARK    6  A    between atoms: C_6  and  C_8 
REMARK    7  A    between atoms: C_7  and  C_9 
REMARK    8  A    between atoms: C_8  and  C_10 
REMARK    9  A    between atoms: C_9  and  C_11 
REMARK   10  A    between atoms: C_10  and  C_12 
REMARK   11  A    between atoms: C_11  and  C_13 
REMARK   12  A    between atoms: C_12  and  C_14 
REMARK   13  A    between atoms: C_13  and  C_15 
REMARK   14  A    between atoms: C_14  and  C_16 
REMARK   15  A    between atoms: C_15  and  C_17 
REMARK   16  A    between atoms: C_16  and  C_18 
REMARK   17  A    between atoms: C_17  and  C_19 
REMARK   18  A    between atoms: C_18  and  C_20 
REMARK   19  A    between atoms: C_20  and  C_22 
ROOT
HETATM    1  O   UNL     1      35.842 -13.785 -22.042  1.00  0.00    -0.776 OA
HETATM    2  H   UNL     1      36.749 -14.122 -22.074  1.00  0.00     0.167 HD
ENDROOT
BRANCH   1   3
HETATM    3  C   UNL     1      34.897 -14.373 -21.279  1.00  0.00     0.139 C 
HETATM    4  O   UNL     1      33.721 -14.296 -21.604  1.00  0.00    -0.650 OA
BRANCH   3   5
HETATM    5  C   UNL     1      35.277 -15.087 -20.009  1.00  0.00     0.110 C 
BRANCH   5   6
HETATM    6  C   UNL     1      34.214 -14.981 -18.900  1.00  0.00     0.010 C 
BRANCH   6   7
HETATM    7  C   UNL     1      34.398 -15.929 -17.698  1.00  0.00     0.001 C 
BRANCH   7   8
HETATM    8  C   UNL     1      35.215 -15.345 -16.527  1.00  0.00     0.000 C 
BRANCH   8   9
HETATM    9  C   UNL     1      36.633 -15.930 -16.365  1.00  0.00     0.000 C 
BRANCH   9  10
HETATM   10  C   UNL     1      37.397 -15.453 -15.115  1.00  0.00     0.000 C 
BRANCH  10  11
HETATM   11  C   UNL     1      36.524 -15.225 -13.864  1.00  0.00     0.000 C 
BRANCH  11  12
HETATM   12  C   UNL     1      37.255 -15.399 -12.518  1.00  0.00     0.000 C 
BRANCH  12  13
HETATM   13  C   UNL     1      36.487 -16.213 -11.458  1.00  0.00     0.000 C 
BRANCH  13  14
HETATM   14  C   UNL     1      36.499 -15.612 -10.038  1.00  0.00     0.000 C 
BRANCH  14  15
HETATM   15  C   UNL     1      35.238 -14.811  -9.658  1.00  0.00     0.000 C 
BRANCH  15  16
HETATM   16  C   UNL     1      34.060 -14.940 -10.645  1.00  0.00     0.000 C 
BRANCH  16  17
HETATM   17  C   UNL     1      32.660 -14.871 -10.003  1.00  0.00     0.000 C 
BRANCH  17  18
HETATM   18  C   UNL     1      32.187 -13.455  -9.616  1.00  0.00     0.000 C 
BRANCH  18  19
HETATM   19  C   UNL     1      31.269 -12.770 -10.648  1.00  0.00     0.000 C 
BRANCH  19  20
HETATM   20  C   UNL     1      31.230 -13.442 -12.035  1.00  0.00     0.000 C 
BRANCH  20  21
HETATM   21  C   UNL     1      32.057 -12.733 -13.127  1.00  0.00    -0.000 C 
BRANCH  21  22
HETATM   22  C   UNL     1      31.857 -13.273 -14.555  1.00  0.00    -0.005 C 
HETATM   23  C   UNL     1      31.913 -14.797 -14.636  1.00  0.00     0.005 C 
ENDBRANCH  21  22
ENDBRANCH  20  21
ENDBRANCH  19  20
ENDBRANCH  18  19
ENDBRANCH  17  18
ENDBRANCH  16  17
ENDBRANCH  15  16
ENDBRANCH  14  15
ENDBRANCH  13  14
ENDBRANCH  12  13
ENDBRANCH  11  12
ENDBRANCH  10  11
ENDBRANCH   9  10
ENDBRANCH   8   9
ENDBRANCH   7   8
ENDBRANCH   6   7
ENDBRANCH   5   6
ENDBRANCH   3   5
ENDBRANCH   1   3
TORSDOF 19
ENDMDL
MODEL 8
REMARK VINA RESULT:      -4.6     19.626     23.073
REMARK  19 active torsions:
REMARK  status: ('A' for Active; 'I' for Inactive)
REMARK    1  A    between atoms: O_1  and  C_22 
REMARK    2  A    between atoms: C_3  and  C_4 
REMARK    3  A    between atoms: C_3  and  C_5 
REMARK    4  A    between atoms: C_4  and  C_6 
REMARK    5  A    between atoms: C_5  and  C_7 
REMARK    6  A    between atoms: C_6  and  C_8 
REMARK    7  A    between atoms: C_7  and  C_9 
REMARK    8  A    between atoms: C_8  and  C_10 
REMARK    9  A    between atoms: C_9  and  C_11 
REMARK   10  A    between atoms: C_10  and  C_12 
REMARK   11  A    between atoms: C_11  and  C_13 
REMARK   12  A    between atoms: C_12  and  C_14 
REMARK   13  A    between atoms: C_13  and  C_15 
REMARK   14  A    between atoms: C_14  and  C_16 
REMARK   15  A    between atoms: C_15  and  C_17 
REMARK   16  A    between atoms: C_16  and  C_18 
REMARK   17  A    between atoms: C_17  and  C_19 
REMARK   18  A    between atoms: C_18  and  C_20 
REMARK   19  A    between atoms: C_20  and  C_22 
ROOT
HETATM    1  O   UNL     1      26.101   9.237 -21.132  1.00  0.00    -0.776 OA
HETATM    2  H   UNL     1      26.649   8.442 -21.072  1.00  0.00     0.167 HD
ENDROOT
BRANCH   1   3
HETATM    3  C   UNL     1      25.325   9.639 -20.103  1.00  0.00     0.139 C 
HETATM    4  O   UNL     1      24.274  10.221 -20.327  1.00  0.00    -0.650 OA
BRANCH   3   5
HETATM    5  C   UNL     1      25.765   9.410 -18.681  1.00  0.00     0.110 C 
BRANCH   5   6
HETATM    6  C   UNL     1      24.597   9.206 -17.699  1.00  0.00     0.010 C 
BRANCH   6   7
HETATM    7  C   UNL     1      24.966   8.594 -16.332  1.00  0.00     0.001 C 
BRANCH   7   8
HETATM    8  C   UNL     1      25.146   9.614 -15.190  1.00  0.00     0.000 C 
BRANCH   8   9
HETATM    9  C   UNL     1      26.545   9.628 -14.542  1.00  0.00     0.000 C 
BRANCH   9  10
HETATM   10  C   UNL     1      26.555   9.502 -13.006  1.00  0.00     0.000 C 
BRANCH  10  11
HETATM   11  C   UNL     1      27.774   8.763 -12.419  1.00  0.00     0.000 C 
BRANCH  11  12
HETATM   12  C   UNL     1      29.108   9.024 -13.147  1.00  0.00     0.000 C 
BRANCH  12  13
HETATM   13  C   UNL     1      30.339   9.153 -12.227  1.00  0.00     0.000 C 
BRANCH  13  14
HETATM   14  C   UNL     1      31.075   7.830 -11.933  1.00  0.00     0.000 C 
BRANCH  14  15
HETATM   15  C   UNL     1      32.613   7.911 -11.999  1.00  0.00     0.000 C 
BRANCH  15  16
HETATM   16  C   UNL     1      33.356   7.125 -10.900  1.00  0.00     0.000 C 
BRANCH  16  17
HETATM   17  C   UNL     1      33.597   5.634 -11.215  1.00  0.00     0.000 C 
BRANCH  17  18
HETATM   18  C   UNL     1      35.067   5.251 -11.477  1.00  0.00     0.000 C 
BRANCH  18  19
HETATM   19  C   UNL     1      35.821   6.183 -12.446  1.00  0.00     0.000 C 
BRANCH  19  20
HETATM   20  C   UNL     1      35.907   5.680 -13.901  1.00  0.00     0.000 C 
BRANCH  20  21
HETATM   21  C   UNL     1      34.559   5.608 -14.647  1.00  0.00    -0.000 C 
BRANCH  21  22
HETATM   22  C   UNL     1      34.050   4.186 -14.944  1.00  0.00    -0.005 C 
HETATM   23  C   UNL     1      33.935   3.887 -16.438  1.00  0.00     0.005 C 
ENDBRANCH  21  22
ENDBRANCH  20  21
ENDBRANCH  19  20
ENDBRANCH  18  19
ENDBRANCH  17  18
ENDBRANCH  16  17
ENDBRANCH  15  16
ENDBRANCH  14  15
ENDBRANCH  13  14
ENDBRANCH  12  13
ENDBRANCH  11  12
ENDBRANCH  10  11
ENDBRANCH   9  10
ENDBRANCH   8   9
ENDBRANCH   7   8
ENDBRANCH   6   7
ENDBRANCH   5   6
ENDBRANCH   3   5
ENDBRANCH   1   3
TORSDOF 19
ENDMDL
MODEL 9
REMARK VINA RESULT:      -4.5      2.917      6.994
REMARK  19 active torsions:
REMARK  status: ('A' for Active; 'I' for Inactive)
REMARK    1  A    between atoms: O_1  and  C_22 
REMARK    2  A    between atoms: C_3  and  C_4 
REMARK    3  A    between atoms: C_3  and  C_5 
REMARK    4  A    between atoms: C_4  and  C_6 
REMARK    5  A    between atoms: C_5  and  C_7 
REMARK    6  A    between atoms: C_6  and  C_8 
REMARK    7  A    between atoms: C_7  and  C_9 
REMARK    8  A    between atoms: C_8  and  C_10 
REMARK    9  A    between atoms: C_9  and  C_11 
REMARK   10  A    between atoms: C_10  and  C_12 
REMARK   11  A    between atoms: C_11  and  C_13 
REMARK   12  A    between atoms: C_12  and  C_14 
REMARK   13  A    between atoms: C_13  and  C_15 
REMARK   14  A    between atoms: C_14  and  C_16 
REMARK   15  A    between atoms: C_15  and  C_17 
REMARK   16  A    between atoms: C_16  and  C_18 
REMARK   17  A    between atoms: C_17  and  C_19 
REMARK   18  A    between atoms: C_18  and  C_20 
REMARK   19  A    between atoms: C_20  and  C_22 
ROOT
HETATM    1  O   UNL     1      37.944 -14.496 -12.547  1.00  0.00    -0.776 OA
HETATM    2  H   UNL     1      38.393 -15.078 -13.177  1.00  0.00     0.167 HD
ENDROOT
BRANCH   1   3
HETATM    3  C   UNL     1      37.016 -14.968 -11.688  1.00  0.00     0.139 C 
HETATM    4  O   UNL     1      37.320 -15.838 -10.885  1.00  0.00    -0.650 OA
BRANCH   3   5
HETATM    5  C   UNL     1      35.600 -14.460 -11.740  1.00  0.00     0.110 C 
BRANCH   5   6
HETATM    6  C   UNL     1      34.546 -15.579 -11.828  1.00  0.00     0.010 C 
BRANCH   6   7
HETATM    7  C   UNL     1      34.050 -15.927 -13.246  1.00  0.00     0.001 C 
BRANCH   7   8
HETATM    8  C   UNL     1      34.784 -15.199 -14.389  1.00  0.00     0.000 C 
BRANCH   8   9
HETATM    9  C   UNL     1      33.868 -14.572 -15.459  1.00  0.00     0.000 C 
BRANCH   9  10
HETATM   10  C   UNL     1      32.378 -14.950 -15.345  1.00  0.00     0.000 C 
BRANCH  10  11
HETATM   11  C   UNL     1      31.397 -13.761 -15.391  1.00  0.00     0.000 C 
BRANCH  11  12
HETATM   12  C   UNL     1      31.583 -12.719 -14.270  1.00  0.00     0.000 C 
BRANCH  12  13
HETATM   13  C   UNL     1      31.581 -13.291 -12.839  1.00  0.00     0.000 C 
BRANCH  13  14
HETATM   14  C   UNL     1      31.903 -12.273 -11.728  1.00  0.00     0.000 C 
BRANCH  14  15
HETATM   15  C   UNL     1      32.434 -12.884 -10.416  1.00  0.00     0.000 C 
BRANCH  15  16
HETATM   16  C   UNL     1      31.473 -13.868  -9.718  1.00  0.00     0.000 C 
BRANCH  16  17
HETATM   17  C   UNL     1      32.134 -15.155  -9.183  1.00  0.00     0.000 C 
BRANCH  17  18
HETATM   18  C   UNL     1      32.201 -15.264  -7.646  1.00  0.00     0.000 C 
BRANCH  18  19
HETATM   19  C   UNL     1      31.004 -14.649  -6.895  1.00  0.00     0.000 C 
BRANCH  19  20
HETATM   20  C   UNL     1      31.349 -13.986  -5.547  1.00  0.00     0.000 C 
BRANCH  20  21
HETATM   21  C   UNL     1      32.502 -12.963  -5.598  1.00  0.00    -0.000 C 
BRANCH  21  22
HETATM   22  C   UNL     1      32.284 -11.777  -6.554  1.00  0.00    -0.005 C 
HETATM   23  C   UNL     1      33.468 -11.527  -7.486  1.00  0.00     0.005 C 
ENDBRANCH  21  22
ENDBRANCH  20  21
ENDBRANCH  19  20
ENDBRANCH  18  19
ENDBRANCH  17  18
ENDBRANCH  16  17
ENDBRANCH  15  16
ENDBRANCH  14  15
ENDBRANCH  13  14
ENDBRANCH  12  13
ENDBRANCH  11  12
ENDBRANCH  10  11
ENDBRANCH   9  10
ENDBRANCH   8   9
ENDBRANCH   7   8
ENDBRANCH   6   7
ENDBRANCH   5   6
ENDBRANCH   3   5
ENDBRANCH   1   3
TORSDOF 19
ENDMDL
MODEL 10
REMARK VINA RESULT:      -4.5      4.916      9.259
REMARK  19 active torsions:
REMARK  status: ('A' for Active; 'I' for Inactive)
REMARK    1  A    between atoms: O_1  and  C_22 
REMARK    2  A    between atoms: C_3  and  C_4 
REMARK    3  A    between atoms: C_3  and  C_5 
REMARK    4  A    between atoms: C_4  and  C_6 
REMARK    5  A    between atoms: C_5  and  C_7 
REMARK    6  A    between atoms: C_6  and  C_8 
REMARK    7  A    between atoms: C_7  and  C_9 
REMARK    8  A    between atoms: C_8  and  C_10 
REMARK    9  A    between atoms: C_9  and  C_11 
REMARK   10  A    between atoms: C_10  and  C_12 
REMARK   11  A    between atoms: C_11  and  C_13 
REMARK   12  A    between atoms: C_12  and  C_14 
REMARK   13  A    between atoms: C_13  and  C_15 
REMARK   14  A    between atoms: C_14  and  C_16 
REMARK   15  A    between atoms: C_15  and  C_17 
REMARK   16  A    between atoms: C_16  and  C_18 
REMARK   17  A    between atoms: C_17  and  C_19 
REMARK   18  A    between atoms: C_18  and  C_20 
REMARK   19  A    between atoms: C_20  and  C_22 
ROOT
HETATM    1  O   UNL     1      38.527 -14.770 -14.397  1.00  0.00    -0.776 OA
HETATM    2  H   UNL     1      39.134 -15.229 -14.995  1.00  0.00     0.167 HD
ENDROOT
BRANCH   1   3
HETATM    3  C   UNL     1      37.381 -15.346 -13.975  1.00  0.00     0.139 C 
HETATM    4  O   UNL     1      37.168 -15.466 -12.777  1.00  0.00    -0.650 OA
BRANCH   3   5
HETATM    5  C   UNL     1      36.383 -15.876 -14.969  1.00  0.00     0.110 C 
BRANCH   5   6
HETATM    6  C   UNL     1      36.888 -15.852 -16.424  1.00  0.00     0.010 C 
BRANCH   6   7
HETATM    7  C   UNL     1      35.833 -15.516 -17.498  1.00  0.00     0.001 C 
BRANCH   7   8
HETATM    8  C   UNL     1      36.374 -15.441 -18.940  1.00  0.00     0.000 C 
BRANCH   8   9
HETATM    9  C   UNL     1      35.316 -15.132 -20.018  1.00  0.00     0.000 C 
BRANCH   9  10
HETATM   10  C   UNL     1      34.058 -14.401 -19.508  1.00  0.00     0.000 C 
BRANCH  10  11
HETATM   11  C   UNL     1      32.720 -15.075 -19.871  1.00  0.00     0.000 C 
BRANCH  11  12
HETATM   12  C   UNL     1      31.695 -15.152 -18.721  1.00  0.00     0.000 C 
BRANCH  12  13
HETATM   13  C   UNL     1      32.185 -14.590 -17.372  1.00  0.00     0.000 C 
BRANCH  13  14
HETATM   14  C   UNL     1      32.096 -13.057 -17.233  1.00  0.00     0.000 C 
BRANCH  14  15
HETATM   15  C   UNL     1      31.147 -12.557 -16.125  1.00  0.00     0.000 C 
BRANCH  15  16
HETATM   16  C   UNL     1      31.219 -13.343 -14.800  1.00  0.00     0.000 C 
BRANCH  16  17
HETATM   17  C   UNL     1      32.384 -12.948 -13.870  1.00  0.00     0.000 C 
BRANCH  17  18
HETATM   18  C   UNL     1      32.783 -14.017 -12.833  1.00  0.00     0.000 C 
BRANCH  18  19
HETATM   19  C   UNL     1      31.650 -14.974 -12.414  1.00  0.00     0.000 C 
BRANCH  19  20
HETATM   20  C   UNL     1      30.812 -14.506 -11.207  1.00  0.00     0.000 C 
BRANCH  20  21
HETATM   21  C   UNL     1      31.627 -14.128  -9.954  1.00  0.00    -0.000 C 
BRANCH  21  22
HETATM   22  C   UNL     1      31.656 -15.194  -8.844  1.00  0.00    -0.005 C 
HETATM   23  C   UNL     1      33.071 -15.578  -8.414  1.00  0.00     0.005 C 
ENDBRANCH  21  22
ENDBRANCH  20  21
ENDBRANCH  19  20
ENDBRANCH  18  19
ENDBRANCH  17  18
ENDBRANCH  16  17
ENDBRANCH  15  16
ENDBRANCH  14  15
ENDBRANCH  13  14
ENDBRANCH  12  13
ENDBRANCH  11  12
ENDBRANCH  10  11
ENDBRANCH   9  10
ENDBRANCH   8   9
ENDBRANCH   7   8
ENDBRANCH   6   7
ENDBRANCH   5   6
ENDBRANCH   3   5
ENDBRANCH   1   3
TORSDOF 19
ENDMDL
MODEL 11
REMARK VINA RESULT:      -4.5      3.365      4.933
REMARK  19 active torsions:
REMARK  status: ('A' for Active; 'I' for Inactive)
REMARK    1  A    between atoms: O_1  and  C_22 
REMARK    2  A    between atoms: C_3  and  C_4 
REMARK    3  A    between atoms: C_3  and  C_5 
REMARK    4  A    between atoms: C_4  and  C_6 
REMARK    5  A    between atoms: C_5  and  C_7 
REMARK    6  A    between atoms: C_6  and  C_8 
REMARK    7  A    between atoms: C_7  and  C_9 
REMARK    8  A    between atoms: C_8  and  C_10 
REMARK    9  A    between atoms: C_9  and  C_11 
REMARK   10  A    between atoms: C_10  and  C_12 
REMARK   11  A    between atoms: C_11  and  C_13 
REMARK   12  A    between atoms: C_12  and  C_14 
REMARK   13  A    between atoms: C_13  and  C_15 
REMARK   14  A    between atoms: C_14  and  C_16 
REMARK   15  A    between atoms: C_15  and  C_17 
REMARK   16  A    between atoms: C_16  and  C_18 
REMARK   17  A    between atoms: C_17  and  C_19 
REMARK   18  A    between atoms: C_18  and  C_20 
REMARK   19  A    between atoms: C_20  and  C_22 
ROOT
HETATM    1  O   UNL     1      34.692  -7.732 -13.419  1.00  0.00    -0.776 OA
HETATM    2  H   UNL     1      34.511  -6.824 -13.698  1.00  0.00     0.167 HD
ENDROOT
BRANCH   1   3
HETATM    3  C   UNL     1      34.197  -8.228 -12.265  1.00  0.00     0.139 C 
HETATM    4  O   UNL     1      33.422  -7.556 -11.600  1.00  0.00    -0.650 OA
BRANCH   3   5
HETATM    5  C   UNL     1      34.623  -9.585 -11.773  1.00  0.00     0.110 C 
BRANCH   5   6
HETATM    6  C   UNL     1      33.829 -10.746 -12.399  1.00  0.00     0.010 C 
BRANCH   6   7
HETATM    7  C   UNL     1      32.595 -11.223 -11.606  1.00  0.00     0.001 C 
BRANCH   7   8
HETATM    8  C   UNL     1      31.834 -12.408 -12.236  1.00  0.00     0.000 C 
BRANCH   8   9
HETATM    9  C   UNL     1      31.231 -13.406 -11.227  1.00  0.00     0.000 C 
BRANCH   9  10
HETATM   10  C   UNL     1      31.581 -13.135  -9.751  1.00  0.00     0.000 C 
BRANCH  10  11
HETATM   11  C   UNL     1      32.877 -13.806  -9.254  1.00  0.00     0.000 C 
BRANCH  11  12
HETATM   12  C   UNL     1      33.376 -14.982 -10.117  1.00  0.00     0.000 C 
BRANCH  12  13
HETATM   13  C   UNL     1      34.657 -14.698 -10.927  1.00  0.00     0.000 C 
BRANCH  13  14
HETATM   14  C   UNL     1      34.772 -15.469 -12.258  1.00  0.00     0.000 C 
BRANCH  14  15
HETATM   15  C   UNL     1      33.429 -15.910 -12.874  1.00  0.00     0.000 C 
BRANCH  15  16
HETATM   16  C   UNL     1      33.080 -15.248 -14.223  1.00  0.00     0.000 C 
BRANCH  16  17
HETATM   17  C   UNL     1      34.161 -14.301 -14.783  1.00  0.00     0.000 C 
BRANCH  17  18
HETATM   18  C   UNL     1      34.995 -14.877 -15.945  1.00  0.00     0.000 C 
BRANCH  18  19
HETATM   19  C   UNL     1      34.812 -14.159 -17.297  1.00  0.00     0.000 C 
BRANCH  19  20
HETATM   20  C   UNL     1      33.836 -12.966 -17.276  1.00  0.00     0.000 C 
BRANCH  20  21
HETATM   21  C   UNL     1      32.877 -12.887 -18.481  1.00  0.00    -0.000 C 
BRANCH  21  22
HETATM   22  C   UNL     1      31.430 -13.328 -18.196  1.00  0.00    -0.005 C 
HETATM   23  C   UNL     1      31.341 -14.652 -17.439  1.00  0.00     0.005 C 
ENDBRANCH  21  22
ENDBRANCH  20  21
ENDBRANCH  19  20
ENDBRANCH  18  19
ENDBRANCH  17  18
ENDBRANCH  16  17
ENDBRANCH  15  16
ENDBRANCH  14  15
ENDBRANCH  13  14
ENDBRANCH  12  13
ENDBRANCH  11  12
ENDBRANCH  10  11
ENDBRANCH   9  10
ENDBRANCH   8   9
ENDBRANCH   7   8
ENDBRANCH   6   7
ENDBRANCH   5   6
ENDBRANCH   3   5
ENDBRANCH   1   3
TORSDOF 19
ENDMDL
MODEL 12
REMARK VINA RESULT:      -4.5      4.053      8.027
REMARK  19 active torsions:
REMARK  status: ('A' for Active; 'I' for Inactive)
REMARK    1  A    between atoms: O_1  and  C_22 
REMARK    2  A    between atoms: C_3  and  C_4 
REMARK    3  A    between atoms: C_3  and  C_5 
REMARK    4  A    between atoms: C_4  and  C_6 
REMARK    5  A    between atoms: C_5  and  C_7 
REMARK    6  A    between atoms: C_6  and  C_8 
REMARK    7  A    between atoms: C_7  and  C_9 
REMARK    8  A    between atoms: C_8  and  C_10 
REMARK    9  A    between atoms: C_9  and  C_11 
REMARK   10  A    between atoms: C_10  and  C_12 
REMARK   11  A    between atoms: C_11  and  C_13 
REMARK   12  A    between atoms: C_12  and  C_14 
REMARK   13  A    between atoms: C_13  and  C_15 
REMARK   14  A    between atoms: C_14  and  C_16 
REMARK   15  A    between atoms: C_15  and  C_17 
REMARK   16  A    between atoms: C_16  and  C_18 
REMARK   17  A    between atoms: C_17  and  C_19 
REMARK   18  A    between atoms: C_18  and  C_20 
REMARK   19  A    between atoms: C_20  and  C_22 
ROOT
HETATM    1  O   UNL     1      34.245 -14.930  -8.453  1.00  0.00    -0.776 OA
HETATM    2  H   UNL     1      34.492 -15.345  -7.615  1.00  0.00     0.167 HD
ENDROOT
BRANCH   1   3
HETATM    3  C   UNL     1      35.061 -14.968  -9.528  1.00  0.00     0.139 C 
HETATM    4  O   UNL     1      36.251 -14.719  -9.395  1.00  0.00    -0.650 OA
BRANCH   3   5
HETATM    5  C   UNL     1      34.510 -15.276 -10.894  1.00  0.00     0.110 C 
BRANCH   5   6
HETATM    6  C   UNL     1      35.597 -15.527 -11.956  1.00  0.00     0.010 C 
BRANCH   6   7
HETATM    7  C   UNL     1      35.090 -15.929 -13.356  1.00  0.00     0.001 C 
BRANCH   7   8
HETATM    8  C   UNL     1      36.049 -15.592 -14.516  1.00  0.00     0.000 C 
BRANCH   8   9
HETATM    9  C   UNL     1      35.552 -14.490 -15.475  1.00  0.00     0.000 C 
BRANCH   9  10
HETATM   10  C   UNL     1      36.124 -14.562 -16.904  1.00  0.00     0.000 C 
BRANCH  10  11
HETATM   11  C   UNL     1      35.975 -15.930 -17.599  1.00  0.00     0.000 C 
BRANCH  11  12
HETATM   12  C   UNL     1      34.907 -15.986 -18.709  1.00  0.00     0.000 C 
BRANCH  12  13
HETATM   13  C   UNL     1      33.480 -15.610 -18.262  1.00  0.00     0.000 C 
BRANCH  13  14
HETATM   14  C   UNL     1      32.798 -14.517 -19.108  1.00  0.00     0.000 C 
BRANCH  14  15
HETATM   15  C   UNL     1      32.939 -13.084 -18.558  1.00  0.00     0.000 C 
BRANCH  15  16
HETATM   16  C   UNL     1      32.554 -12.912 -17.074  1.00  0.00     0.000 C 
BRANCH  16  17
HETATM   17  C   UNL     1      31.080 -13.221 -16.743  1.00  0.00     0.000 C 
BRANCH  17  18
HETATM   18  C   UNL     1      30.854 -14.478 -15.879  1.00  0.00     0.000 C 
BRANCH  18  19
HETATM   19  C   UNL     1      31.963 -14.769 -14.849  1.00  0.00     0.000 C 
BRANCH  19  20
HETATM   20  C   UNL     1      31.731 -14.164 -13.450  1.00  0.00     0.000 C 
BRANCH  20  21
HETATM   21  C   UNL     1      32.257 -12.726 -13.265  1.00  0.00    -0.000 C 
BRANCH  21  22
HETATM   22  C   UNL     1      32.350 -12.244 -11.806  1.00  0.00    -0.005 C 
HETATM   23  C   UNL     1      31.127 -12.616 -10.970  1.00  0.00     0.005 C 
ENDBRANCH  21  22
ENDBRANCH  20  21
ENDBRANCH  19  20
ENDBRANCH  18  19
ENDBRANCH  17  18
ENDBRANCH  16  17
ENDBRANCH  15  16
ENDBRANCH  14  15
ENDBRANCH  13  14
ENDBRANCH  12  13
ENDBRANCH  11  12
ENDBRANCH  10  11
ENDBRANCH   9  10
ENDBRANCH   8   9
ENDBRANCH   7   8
ENDBRANCH   6   7
ENDBRANCH   5   6
ENDBRANCH   3   5
ENDBRANCH   1   3
TORSDOF 19
ENDMDL
MODEL 13
REMARK VINA RESULT:      -4.4      3.264      6.904
REMARK  19 active torsions:
REMARK  status: ('A' for Active; 'I' for Inactive)
REMARK    1  A    between atoms: O_1  and  C_22 
REMARK    2  A    between atoms: C_3  and  C_4 
REMARK    3  A    between atoms: C_3  and  C_5 
REMARK    4  A    between atoms: C_4  and  C_6 
REMARK    5  A    between atoms: C_5  and  C_7 
REMARK    6  A    between atoms: C_6  and  C_8 
REMARK    7  A    between atoms: C_7  and  C_9 
REMARK    8  A    between atoms: C_8  and  C_10 
REMARK    9  A    between atoms: C_9  and  C_11 
REMARK   10  A    between atoms: C_10  and  C_12 
REMARK   11  A    between atoms: C_11  and  C_13 
REMARK   12  A    between atoms: C_12  and  C_14 
REMARK   13  A    between atoms: C_13  and  C_15 
REMARK   14  A    between atoms: C_14  and  C_16 
REMARK   15  A    between atoms: C_15  and  C_17 
REMARK   16  A    between atoms: C_16  and  C_18 
REMARK   17  A    between atoms: C_17  and  C_19 
REMARK   18  A    between atoms: C_18  and  C_20 
REMARK   19  A    between atoms: C_20  and  C_22 
ROOT
HETATM    1  O   UNL     1      37.894 -14.512 -12.500  1.00  0.00    -0.776 OA
HETATM    2  H   UNL     1      38.299 -15.014 -13.221  1.00  0.00     0.167 HD
ENDROOT
BRANCH   1   3
HETATM    3  C   UNL     1      37.012 -15.081 -11.652  1.00  0.00     0.139 C 
HETATM    4  O   UNL     1      37.325 -16.091 -11.039  1.00  0.00    -0.650 OA
BRANCH   3   5
HETATM    5  C   UNL     1      35.631 -14.504 -11.486  1.00  0.00     0.110 C 
BRANCH   5   6
HETATM    6  C   UNL     1      34.515 -15.565 -11.480  1.00  0.00     0.010 C 
BRANCH   6   7
HETATM    7  C   UNL     1      33.969 -15.977 -12.862  1.00  0.00     0.001 C 
BRANCH   7   8
HETATM    8  C   UNL     1      34.853 -15.569 -14.059  1.00  0.00     0.000 C 
BRANCH   8   9
HETATM    9  C   UNL     1      34.109 -14.850 -15.203  1.00  0.00     0.000 C 
BRANCH   9  10
HETATM   10  C   UNL     1      32.574 -14.969 -15.160  1.00  0.00     0.000 C 
BRANCH  10  11
HETATM   11  C   UNL     1      31.810 -13.661 -15.446  1.00  0.00     0.000 C 
BRANCH  11  12
HETATM   12  C   UNL     1      31.907 -12.592 -14.340  1.00  0.00     0.000 C 
BRANCH  12  13
HETATM   13  C   UNL     1      31.680 -13.113 -12.907  1.00  0.00     0.000 C 
BRANCH  13  14
HETATM   14  C   UNL     1      31.869 -12.064 -11.793  1.00  0.00     0.000 C 
BRANCH  14  15
HETATM   15  C   UNL     1      32.516 -12.597 -10.498  1.00  0.00     0.000 C 
BRANCH  15  16
HETATM   16  C   UNL     1      31.529 -13.191  -9.472  1.00  0.00     0.000 C 
BRANCH  16  17
HETATM   17  C   UNL     1      31.382 -14.726  -9.523  1.00  0.00     0.000 C 
BRANCH  17  18
HETATM   18  C   UNL     1      32.203 -15.496  -8.471  1.00  0.00     0.000 C 
BRANCH  18  19
HETATM   19  C   UNL     1      32.695 -14.650  -7.280  1.00  0.00     0.000 C 
BRANCH  19  20
HETATM   20  C   UNL     1      33.989 -15.155  -6.611  1.00  0.00     0.000 C 
BRANCH  20  21
HETATM   21  C   UNL     1      35.028 -15.765  -7.575  1.00  0.00    -0.000 C 
BRANCH  21  22
HETATM   22  C   UNL     1      36.412 -16.037  -6.959  1.00  0.00    -0.005 C 
HETATM   23  C   UNL     1      37.540 -15.274  -7.651  1.00  0.00     0.005 C 
ENDBRANCH  21  22
ENDBRANCH  20  21
ENDBRANCH  19  20
ENDBRANCH  18  19
ENDBRANCH  17  18
ENDBRANCH  16  17
ENDBRANCH  15  16
ENDBRANCH  14  15
ENDBRANCH  13  14
ENDBRANCH  12  13
ENDBRANCH  11  12
ENDBRANCH  10  11
ENDBRANCH   9  10
ENDBRANCH   8   9
ENDBRANCH   7   8
ENDBRANCH   6   7
ENDBRANCH   5   6
ENDBRANCH   3   5
ENDBRANCH   1   3
TORSDOF 19
ENDMDL
MODEL 14
REMARK VINA RESULT:      -4.4      5.243      7.177
REMARK  19 active torsions:
REMARK  status: ('A' for Active; 'I' for Inactive)
REMARK    1  A    between atoms: O_1  and  C_22 
REMARK    2  A    between atoms: C_3  and  C_4 
REMARK    3  A    between atoms: C_3  and  C_5 
REMARK    4  A    between atoms: C_4  and  C_6 
REMARK    5  A    between atoms: C_5  and  C_7 
REMARK    6  A    between atoms: C_6  and  C_8 
REMARK    7  A    between atoms: C_7  and  C_9 
REMARK    8  A    between atoms: C_8  and  C_10 
REMARK    9  A    between atoms: C_9  and  C_11 
REMARK   10  A    between atoms: C_10  and  C_12 
REMARK   11  A    between atoms: C_11  and  C_13 
REMARK   12  A    between atoms: C_12  and  C_14 
REMARK   13  A    between atoms: C_13  and  C_15 
REMARK   14  A    between atoms: C_14  and  C_16 
REMARK   15  A    between atoms: C_15  and  C_17 
REMARK   16  A    between atoms: C_16  and  C_18 
REMARK   17  A    between atoms: C_17  and  C_19 
REMARK   18  A    between atoms: C_18  and  C_20 
REMARK   19  A    between atoms: C_20  and  C_22 
ROOT
HETATM    1  O   UNL     1      35.296  -8.722 -13.872  1.00  0.00    -0.776 OA
HETATM    2  H   UNL     1      35.034  -8.074 -14.540  1.00  0.00     0.167 HD
ENDROOT
BRANCH   1   3
HETATM    3  C   UNL     1      34.613  -8.861 -12.716  1.00  0.00     0.139 C 
HETATM    4  O   UNL     1      34.042  -7.895 -12.230  1.00  0.00    -0.650 OA
BRANCH   3   5
HETATM    5  C   UNL     1      34.582 -10.185 -12.001  1.00  0.00     0.110 C 
BRANCH   5   6
HETATM    6  C   UNL     1      33.484 -11.136 -12.512  1.00  0.00     0.010 C 
BRANCH   6   7
HETATM    7  C   UNL     1      32.607 -11.796 -11.428  1.00  0.00     0.001 C 
BRANCH   7   8
HETATM    8  C   UNL     1      31.422 -12.624 -11.965  1.00  0.00     0.000 C 
BRANCH   8   9
HETATM    9  C   UNL     1      31.382 -14.091 -11.491  1.00  0.00     0.000 C 
BRANCH   9  10
HETATM   10  C   UNL     1      32.581 -14.530 -10.628  1.00  0.00     0.000 C 
BRANCH  10  11
HETATM   11  C   UNL     1      33.721 -15.224 -11.399  1.00  0.00     0.000 C 
BRANCH  11  12
HETATM   12  C   UNL     1      33.383 -15.615 -12.852  1.00  0.00     0.000 C 
BRANCH  12  13
HETATM   13  C   UNL     1      33.987 -14.697 -13.933  1.00  0.00     0.000 C 
BRANCH  13  14
HETATM   14  C   UNL     1      33.254 -14.715 -15.289  1.00  0.00     0.000 C 
BRANCH  14  15
HETATM   15  C   UNL     1      31.741 -14.426 -15.216  1.00  0.00     0.000 C 
BRANCH  15  16
HETATM   16  C   UNL     1      31.325 -13.006 -15.649  1.00  0.00     0.000 C 
BRANCH  16  17
HETATM   17  C   UNL     1      31.769 -12.601 -17.070  1.00  0.00     0.000 C 
BRANCH  17  18
HETATM   18  C   UNL     1      31.582 -13.689 -18.147  1.00  0.00     0.000 C 
BRANCH  18  19
HETATM   19  C   UNL     1      32.250 -13.387 -19.503  1.00  0.00     0.000 C 
BRANCH  19  20
HETATM   20  C   UNL     1      31.365 -12.628 -20.512  1.00  0.00     0.000 C 
BRANCH  20  21
HETATM   21  C   UNL     1      32.023 -12.353 -21.879  1.00  0.00    -0.000 C 
BRANCH  21  22
HETATM   22  C   UNL     1      31.507 -13.220 -23.042  1.00  0.00    -0.005 C 
HETATM   23  C   UNL     1      31.364 -14.696 -22.676  1.00  0.00     0.005 C 
ENDBRANCH  21  22
ENDBRANCH  20  21
ENDBRANCH  19  20
ENDBRANCH  18  19
ENDBRANCH  17  18
ENDBRANCH  16  17
ENDBRANCH  15  16
ENDBRANCH  14  15
ENDBRANCH  13  14
ENDBRANCH  12  13
ENDBRANCH  11  12
ENDBRANCH  10  11
ENDBRANCH   9  10
ENDBRANCH   8   9
ENDBRANCH   7   8
ENDBRANCH   6   7
ENDBRANCH   5   6
ENDBRANCH   3   5
ENDBRANCH   1   3
TORSDOF 19
ENDMDL
MODEL 15
REMARK VINA RESULT:      -4.4      8.149     11.731
REMARK  19 active torsions:
REMARK  status: ('A' for Active; 'I' for Inactive)
REMARK    1  A    between atoms: O_1  and  C_22 
REMARK    2  A    between atoms: C_3  and  C_4 
REMARK    3  A    between atoms: C_3  and  C_5 
REMARK    4  A    between atoms: C_4  and  C_6 
REMARK    5  A    between atoms: C_5  and  C_7 
REMARK    6  A    between atoms: C_6  and  C_8 
REMARK    7  A    between atoms: C_7  and  C_9 
REMARK    8  A    between atoms: C_8  and  C_10 
REMARK    9  A    between atoms: C_9  and  C_11 
REMARK   10  A    between atoms: C_10  and  C_12 
REMARK   11  A    between atoms: C_11  and  C_13 
REMARK   12  A    between atoms: C_12  and  C_14 
REMARK   13  A    between atoms: C_13  and  C_15 
REMARK   14  A    between atoms: C_14  and  C_16 
REMARK   15  A    between atoms: C_15  and  C_17 
REMARK   16  A    between atoms: C_16  and  C_18 
REMARK   17  A    between atoms: C_17  and  C_19 
REMARK   18  A    between atoms: C_18  and  C_20 
REMARK   19  A    between atoms: C_20  and  C_22 
ROOT
HETATM    1  O   UNL     1      36.093  -8.698 -21.364  1.00  0.00    -0.776 OA
HETATM    2  H   UNL     1      35.875  -8.293 -20.513  1.00  0.00     0.167 HD
ENDROOT
BRANCH   1   3
HETATM    3  C   UNL     1      35.136  -9.014 -22.262  1.00  0.00     0.139 C 
HETATM    4  O   UNL     1      35.317  -8.778 -23.448  1.00  0.00    -0.650 OA
BRANCH   3   5
HETATM    5  C   UNL     1      33.833  -9.616 -21.809  1.00  0.00     0.110 C 
BRANCH   5   6
HETATM    6  C   UNL     1      33.660 -11.091 -22.218  1.00  0.00     0.010 C 
BRANCH   6   7
HETATM    7  C   UNL     1      32.535 -11.862 -21.498  1.00  0.00     0.001 C 
BRANCH   7   8
HETATM    8  C   UNL     1      31.939 -13.039 -22.296  1.00  0.00     0.000 C 
BRANCH   8   9
HETATM    9  C   UNL     1      32.027 -14.412 -21.598  1.00  0.00     0.000 C 
BRANCH   9  10
HETATM   10  C   UNL     1      33.063 -15.382 -22.196  1.00  0.00     0.000 C 
BRANCH  10  11
HETATM   11  C   UNL     1      34.289 -14.710 -22.846  1.00  0.00     0.000 C 
BRANCH  11  12
HETATM   12  C   UNL     1      35.483 -14.474 -21.898  1.00  0.00     0.000 C 
BRANCH  12  13
HETATM   13  C   UNL     1      35.629 -15.507 -20.763  1.00  0.00     0.000 C 
BRANCH  13  14
HETATM   14  C   UNL     1      35.004 -15.089 -19.417  1.00  0.00     0.000 C 
BRANCH  14  15
HETATM   15  C   UNL     1      36.017 -14.749 -18.306  1.00  0.00     0.000 C 
BRANCH  15  16
HETATM   16  C   UNL     1      36.556 -15.961 -17.518  1.00  0.00     0.000 C 
BRANCH  16  17
HETATM   17  C   UNL     1      36.180 -15.985 -16.022  1.00  0.00     0.000 C 
BRANCH  17  18
HETATM   18  C   UNL     1      35.370 -14.768 -15.533  1.00  0.00     0.000 C 
BRANCH  18  19
HETATM   19  C   UNL     1      33.923 -15.078 -15.103  1.00  0.00     0.000 C 
BRANCH  19  20
HETATM   20  C   UNL     1      32.835 -14.277 -15.845  1.00  0.00     0.000 C 
BRANCH  20  21
HETATM   21  C   UNL     1      32.742 -12.787 -15.455  1.00  0.00    -0.000 C 
BRANCH  21  22
HETATM   22  C   UNL     1      32.405 -11.827 -16.610  1.00  0.00    -0.005 C 
HETATM   23  C   UNL     1      33.151 -12.154 -17.903  1.00  0.00     0.005 C 
ENDBRANCH  21  22
ENDBRANCH  20  21
ENDBRANCH  19  20
ENDBRANCH  18  19
ENDBRANCH  17  18
ENDBRANCH  16  17
ENDBRANCH  15  16
ENDBRANCH  14  15
ENDBRANCH  13  14
ENDBRANCH  12  13
ENDBRANCH  11  12
ENDBRANCH  10  11
ENDBRANCH   9  10
ENDBRANCH   8   9
ENDBRANCH   7   8
ENDBRANCH   6   7
ENDBRANCH   5   6
ENDBRANCH   3   5
ENDBRANCH   1   3
TORSDOF 19
ENDMDL
MODEL 16
REMARK VINA RESULT:      -4.4      6.620     10.748
REMARK  19 active torsions:
REMARK  status: ('A' for Active; 'I' for Inactive)
REMARK    1  A    between atoms: O_1  and  C_22 
REMARK    2  A    between atoms: C_3  and  C_4 
REMARK    3  A    between atoms: C_3  and  C_5 
REMARK    4  A    between atoms: C_4  and  C_6 
REMARK    5  A    between atoms: C_5  and  C_7 
REMARK    6  A    between atoms: C_6  and  C_8 
REMARK    7  A    between atoms: C_7  and  C_9 
REMARK    8  A    between atoms: C_8  and  C_10 
REMARK    9  A    between atoms: C_9  and  C_11 
REMARK   10  A    between atoms: C_10  and  C_12 
REMARK   11  A    between atoms: C_11  and  C_13 
REMARK   12  A    between atoms: C_12  and  C_14 
REMARK   13  A    between atoms: C_13  and  C_15 
REMARK   14  A    between atoms: C_14  and  C_16 
REMARK   15  A    between atoms: C_15  and  C_17 
REMARK   16  A    between atoms: C_16  and  C_18 
REMARK   17  A    between atoms: C_17  and  C_19 
REMARK   18  A    between atoms: C_18  and  C_20 
REMARK   19  A    between atoms: C_20  and  C_22 
ROOT
HETATM    1  O   UNL     1      32.435 -12.615 -19.770  1.00  0.00    -0.776 OA
HETATM    2  H   UNL     1      31.821 -11.910 -20.018  1.00  0.00     0.167 HD
ENDROOT
BRANCH   1   3
HETATM    3  C   UNL     1      32.568 -13.731 -20.517  1.00  0.00     0.139 C 
HETATM    4  O   UNL     1      31.670 -14.560 -20.534  1.00  0.00    -0.650 OA
BRANCH   3   5
HETATM    5  C   UNL     1      33.831 -13.980 -21.299  1.00  0.00     0.110 C 
BRANCH   5   6
HETATM    6  C   UNL     1      33.966 -15.427 -21.808  1.00  0.00     0.010 C 
BRANCH   6   7
HETATM    7  C   UNL     1      35.385 -15.865 -22.224  1.00  0.00     0.001 C 
BRANCH   7   8
HETATM    8  C   UNL     1      36.525 -14.985 -21.673  1.00  0.00     0.000 C 
BRANCH   8   9
HETATM    9  C   UNL     1      37.516 -15.709 -20.740  1.00  0.00     0.000 C 
BRANCH   9  10
HETATM   10  C   UNL     1      37.407 -15.330 -19.250  1.00  0.00     0.000 C 
BRANCH  10  11
HETATM   11  C   UNL     1      36.001 -15.491 -18.637  1.00  0.00     0.000 C 
BRANCH  11  12
HETATM   12  C   UNL     1      35.837 -14.910 -17.219  1.00  0.00     0.000 C 
BRANCH  12  13
HETATM   13  C   UNL     1      37.133 -14.844 -16.386  1.00  0.00     0.000 C 
BRANCH  13  14
HETATM   14  C   UNL     1      36.996 -15.323 -14.927  1.00  0.00     0.000 C 
BRANCH  14  15
HETATM   15  C   UNL     1      35.554 -15.349 -14.381  1.00  0.00     0.000 C 
BRANCH  15  16
HETATM   16  C   UNL     1      35.377 -14.738 -12.976  1.00  0.00     0.000 C 
BRANCH  16  17
HETATM   17  C   UNL     1      34.308 -13.631 -12.877  1.00  0.00     0.000 C 
BRANCH  17  18
HETATM   18  C   UNL     1      32.903 -14.115 -12.463  1.00  0.00     0.000 C 
BRANCH  18  19
HETATM   19  C   UNL     1      31.737 -13.475 -13.242  1.00  0.00     0.000 C 
BRANCH  19  20
HETATM   20  C   UNL     1      32.140 -12.745 -14.539  1.00  0.00     0.000 C 
BRANCH  20  21
HETATM   21  C   UNL     1      31.028 -12.644 -15.603  1.00  0.00    -0.000 C 
BRANCH  21  22
HETATM   22  C   UNL     1      31.160 -13.623 -16.784  1.00  0.00    -0.005 C 
HETATM   23  C   UNL     1      32.170 -14.740 -16.530  1.00  0.00     0.005 C 
ENDBRANCH  21  22
ENDBRANCH  20  21
ENDBRANCH  19  20
ENDBRANCH  18  19
ENDBRANCH  17  18
ENDBRANCH  16  17
ENDBRANCH  15  16
ENDBRANCH  14  15
ENDBRANCH  13  14
ENDBRANCH  12  13
ENDBRANCH  11  12
ENDBRANCH  10  11
ENDBRANCH   9  10
ENDBRANCH   8   9
ENDBRANCH   7   8
ENDBRANCH   6   7
ENDBRANCH   5   6
ENDBRANCH   3   5
ENDBRANCH   1   3
TORSDOF 19
ENDMDL
MODEL 17
REMARK VINA RESULT:      -4.4     21.024     24.389
REMARK  19 active torsions:
REMARK  status: ('A' for Active; 'I' for Inactive)
REMARK    1  A    between atoms: O_1  and  C_22 
REMARK    2  A    between atoms: C_3  and  C_4 
REMARK    3  A    between atoms: C_3  and  C_5 
REMARK    4  A    between atoms: C_4  and  C_6 
REMARK    5  A    between atoms: C_5  and  C_7 
REMARK    6  A    between atoms: C_6  and  C_8 
REMARK    7  A    between atoms: C_7  and  C_9 
REMARK    8  A    between atoms: C_8  and  C_10 
REMARK    9  A    between atoms: C_9  and  C_11 
REMARK   10  A    between atoms: C_10  and  C_12 
REMARK   11  A    between atoms: C_11  and  C_13 
REMARK   12  A    between atoms: C_12  and  C_14 
REMARK   13  A    between atoms: C_13  and  C_15 
REMARK   14  A    between atoms: C_14  and  C_16 
REMARK   15  A    between atoms: C_15  and  C_17 
REMARK   16  A    between atoms: C_16  and  C_18 
REMARK   17  A    between atoms: C_17  and  C_19 
REMARK   18  A    between atoms: C_18  and  C_20 
REMARK   19  A    between atoms: C_20  and  C_22 
ROOT
HETATM    1  O   UNL     1      55.488 -13.160 -18.567  1.00  0.00    -0.776 OA
HETATM    2  H   UNL     1      55.396 -12.669 -19.396  1.00  0.00     0.167 HD
ENDROOT
BRANCH   1   3
HETATM    3  C   UNL     1      55.721 -12.530 -17.396  1.00  0.00     0.139 C 
HETATM    4  O   UNL     1      55.384 -13.059 -16.347  1.00  0.00    -0.650 OA
BRANCH   3   5
HETATM    5  C   UNL     1      56.355 -11.165 -17.376  1.00  0.00     0.110 C 
BRANCH   5   6
HETATM    6  C   UNL     1      55.451 -10.057 -17.947  1.00  0.00     0.010 C 
BRANCH   6   7
HETATM    7  C   UNL     1      55.898  -8.609 -17.660  1.00  0.00     0.001 C 
BRANCH   7   8
HETATM    8  C   UNL     1      56.512  -7.866 -18.864  1.00  0.00     0.000 C 
BRANCH   8   9
HETATM    9  C   UNL     1      57.593  -6.826 -18.508  1.00  0.00     0.000 C 
BRANCH   9  10
HETATM   10  C   UNL     1      57.515  -6.270 -17.072  1.00  0.00     0.000 C 
BRANCH  10  11
HETATM   11  C   UNL     1      58.514  -6.893 -16.076  1.00  0.00     0.000 C 
BRANCH  11  12
HETATM   12  C   UNL     1      58.494  -6.279 -14.662  1.00  0.00     0.000 C 
BRANCH  12  13
HETATM   13  C   UNL     1      57.336  -5.297 -14.393  1.00  0.00     0.000 C 
BRANCH  13  14
HETATM   14  C   UNL     1      56.190  -5.861 -13.530  1.00  0.00     0.000 C 
BRANCH  14  15
HETATM   15  C   UNL     1      54.932  -6.287 -14.315  1.00  0.00     0.000 C 
BRANCH  15  16
HETATM   16  C   UNL     1      54.622  -7.797 -14.284  1.00  0.00     0.000 C 
BRANCH  16  17
HETATM   17  C   UNL     1      55.846  -8.709 -14.057  1.00  0.00     0.000 C 
BRANCH  17  18
HETATM   18  C   UNL     1      55.814  -9.534 -12.755  1.00  0.00     0.000 C 
BRANCH  18  19
HETATM   19  C   UNL     1      56.744  -9.024 -11.637  1.00  0.00     0.000 C 
BRANCH  19  20
HETATM   20  C   UNL     1      56.044  -8.695 -10.304  1.00  0.00     0.000 C 
BRANCH  20  21
HETATM   21  C   UNL     1      55.641  -7.217 -10.126  1.00  0.00    -0.000 C 
BRANCH  21  22
HETATM   22  C   UNL     1      54.267  -6.838 -10.707  1.00  0.00    -0.005 C 
HETATM   23  C   UNL     1      53.140  -7.757 -10.239  1.00  0.00     0.005 C 
ENDBRANCH  21  22
ENDBRANCH  20  21
ENDBRANCH  19  20
ENDBRANCH  18  19
ENDBRANCH  17  18
ENDBRANCH  16  17
ENDBRANCH  15  16
ENDBRANCH  14  15
ENDBRANCH  13  14
ENDBRANCH  12  13
ENDBRANCH  11  12
ENDBRANCH  10  11
ENDBRANCH   9  10
ENDBRANCH   8   9
ENDBRANCH   7   8
ENDBRANCH   6   7
ENDBRANCH   5   6
ENDBRANCH   3   5
ENDBRANCH   1   3
TORSDOF 19
ENDMDL
MODEL 18
REMARK VINA RESULT:      -4.3      5.466      8.466
REMARK  19 active torsions:
REMARK  status: ('A' for Active; 'I' for Inactive)
REMARK    1  A    between atoms: O_1  and  C_22 
REMARK    2  A    between atoms: C_3  and  C_4 
REMARK    3  A    between atoms: C_3  and  C_5 
REMARK    4  A    between atoms: C_4  and  C_6 
REMARK    5  A    between atoms: C_5  and  C_7 
REMARK    6  A    between atoms: C_6  and  C_8 
REMARK    7  A    between atoms: C_7  and  C_9 
REMARK    8  A    between atoms: C_8  and  C_10 
REMARK    9  A    between atoms: C_9  and  C_11 
REMARK   10  A    between atoms: C_10  and  C_12 
REMARK   11  A    between atoms: C_11  and  C_13 
REMARK   12  A    between atoms: C_12  and  C_14 
REMARK   13  A    between atoms: C_13  and  C_15 
REMARK   14  A    between atoms: C_14  and  C_16 
REMARK   15  A    between atoms: C_15  and  C_17 
REMARK   16  A    between atoms: C_16  and  C_18 
REMARK   17  A    between atoms: C_17  and  C_19 
REMARK   18  A    between atoms: C_18  and  C_20 
REMARK   19  A    between atoms: C_20  and  C_22 
ROOT
HETATM    1  O   UNL     1      30.391 -14.663 -21.106  1.00  0.00    -0.776 OA
HETATM    2  H   UNL     1      29.548 -14.936 -20.716  1.00  0.00     0.167 HD
ENDROOT
BRANCH   1   3
HETATM    3  C   UNL     1      31.550 -14.760 -20.420  1.00  0.00     0.139 C 
HETATM    4  O   UNL     1      32.595 -14.959 -21.022  1.00  0.00    -0.650 OA
BRANCH   3   5
HETATM    5  C   UNL     1      31.558 -14.667 -18.918  1.00  0.00     0.110 C 
BRANCH   5   6
HETATM    6  C   UNL     1      31.392 -13.231 -18.388  1.00  0.00     0.010 C 
BRANCH   6   7
HETATM    7  C   UNL     1      32.644 -12.601 -17.744  1.00  0.00     0.001 C 
BRANCH   7   8
HETATM    8  C   UNL     1      32.381 -11.817 -16.442  1.00  0.00     0.000 C 
BRANCH   8   9
HETATM    9  C   UNL     1      32.755 -12.562 -15.145  1.00  0.00     0.000 C 
BRANCH   9  10
HETATM   10  C   UNL     1      33.208 -14.022 -15.338  1.00  0.00     0.000 C 
BRANCH  10  11
HETATM   11  C   UNL     1      32.344 -15.075 -14.615  1.00  0.00     0.000 C 
BRANCH  11  12
HETATM   12  C   UNL     1      32.977 -15.681 -13.347  1.00  0.00     0.000 C 
BRANCH  12  13
HETATM   13  C   UNL     1      33.354 -14.661 -12.255  1.00  0.00     0.000 C 
BRANCH  13  14
HETATM   14  C   UNL     1      34.868 -14.480 -12.024  1.00  0.00     0.000 C 
BRANCH  14  15
HETATM   15  C   UNL     1      35.724 -15.733 -12.298  1.00  0.00     0.000 C 
BRANCH  15  16
HETATM   16  C   UNL     1      36.690 -16.125 -11.162  1.00  0.00     0.000 C 
BRANCH  16  17
HETATM   17  C   UNL     1      36.876 -15.055 -10.067  1.00  0.00     0.000 C 
BRANCH  17  18
HETATM   18  C   UNL     1      36.965 -15.602  -8.628  1.00  0.00     0.000 C 
BRANCH  18  19
HETATM   19  C   UNL     1      35.724 -15.337  -7.752  1.00  0.00     0.000 C 
BRANCH  19  20
HETATM   20  C   UNL     1      34.680 -14.385  -8.368  1.00  0.00     0.000 C 
BRANCH  20  21
HETATM   21  C   UNL     1      34.241 -13.220  -7.457  1.00  0.00    -0.000 C 
BRANCH  21  22
HETATM   22  C   UNL     1      32.969 -12.481  -7.907  1.00  0.00    -0.005 C 
HETATM   23  C   UNL     1      32.702 -12.597  -9.407  1.00  0.00     0.005 C 
ENDBRANCH  21  22
ENDBRANCH  20  21
ENDBRANCH  19  20
ENDBRANCH  18  19
ENDBRANCH  17  18
ENDBRANCH  16  17
ENDBRANCH  15  16
ENDBRANCH  14  15
ENDBRANCH  13  14
ENDBRANCH  12  13
ENDBRANCH  11  12
ENDBRANCH  10  11
ENDBRANCH   9  10
ENDBRANCH   8   9
ENDBRANCH   7   8
ENDBRANCH   6   7
ENDBRANCH   5   6
ENDBRANCH   3   5
ENDBRANCH   1   3
TORSDOF 19
ENDMDL
MODEL 19
REMARK VINA RESULT:      -4.3      7.196     10.971
REMARK  19 active torsions:
REMARK  status: ('A' for Active; 'I' for Inactive)
REMARK    1  A    between atoms: O_1  and  C_22 
REMARK    2  A    between atoms: C_3  and  C_4 
REMARK    3  A    between atoms: C_3  and  C_5 
REMARK    4  A    between atoms: C_4  and  C_6 
REMARK    5  A    between atoms: C_5  and  C_7 
REMARK    6  A    between atoms: C_6  and  C_8 
REMARK    7  A    between atoms: C_7  and  C_9 
REMARK    8  A    between atoms: C_8  and  C_10 
REMARK    9  A    between atoms: C_9  and  C_11 
REMARK   10  A    between atoms: C_10  and  C_12 
REMARK   11  A    between atoms: C_11  and  C_13 
REMARK   12  A    between atoms: C_12  and  C_14 
REMARK   13  A    between atoms: C_13  and  C_15 
REMARK   14  A    between atoms: C_14  and  C_16 
REMARK   15  A    between atoms: C_15  and  C_17 
REMARK   16  A    between atoms: C_16  and  C_18 
REMARK   17  A    between atoms: C_17  and  C_19 
REMARK   18  A    between atoms: C_18  and  C_20 
REMARK   19  A    between atoms: C_20  and  C_22 
ROOT
HETATM    1  O   UNL     1      30.122 -15.507 -20.953  1.00  0.00    -0.776 OA
HETATM    2  H   UNL     1      29.710 -15.700 -20.100  1.00  0.00     0.167 HD
ENDROOT
BRANCH   1   3
HETATM    3  C   UNL     1      30.782 -14.350 -21.172  1.00  0.00     0.139 C 
HETATM    4  O   UNL     1      30.845 -13.511 -20.285  1.00  0.00    -0.650 OA
BRANCH   3   5
HETATM    5  C   UNL     1      31.406 -14.069 -22.513  1.00  0.00     0.110 C 
BRANCH   5   6
HETATM    6  C   UNL     1      32.170 -12.733 -22.570  1.00  0.00     0.010 C 
BRANCH   6   7
HETATM    7  C   UNL     1      33.591 -12.744 -21.970  1.00  0.00     0.001 C 
BRANCH   7   8
HETATM    8  C   UNL     1      34.405 -14.024 -22.248  1.00  0.00     0.000 C 
BRANCH   8   9
HETATM    9  C   UNL     1      34.434 -15.043 -21.090  1.00  0.00     0.000 C 
BRANCH   9  10
HETATM   10  C   UNL     1      34.399 -14.426 -19.678  1.00  0.00     0.000 C 
BRANCH  10  11
HETATM   11  C   UNL     1      34.063 -15.414 -18.542  1.00  0.00     0.000 C 
BRANCH  11  12
HETATM   12  C   UNL     1      35.280 -16.108 -17.899  1.00  0.00     0.000 C 
BRANCH  12  13
HETATM   13  C   UNL     1      36.517 -15.209 -17.704  1.00  0.00     0.000 C 
BRANCH  13  14
HETATM   14  C   UNL     1      36.763 -14.742 -16.255  1.00  0.00     0.000 C 
BRANCH  14  15
HETATM   15  C   UNL     1      36.797 -15.870 -15.204  1.00  0.00     0.000 C 
BRANCH  15  16
HETATM   16  C   UNL     1      35.665 -15.822 -14.157  1.00  0.00     0.000 C 
BRANCH  16  17
HETATM   17  C   UNL     1      35.773 -14.674 -13.133  1.00  0.00     0.000 C 
BRANCH  17  18
HETATM   18  C   UNL     1      34.441 -13.977 -12.789  1.00  0.00     0.000 C 
BRANCH  18  19
HETATM   19  C   UNL     1      33.256 -14.349 -13.703  1.00  0.00     0.000 C 
BRANCH  19  20
HETATM   20  C   UNL     1      32.970 -13.348 -14.841  1.00  0.00     0.000 C 
BRANCH  20  21
HETATM   21  C   UNL     1      31.509 -13.322 -15.335  1.00  0.00    -0.000 C 
BRANCH  21  22
HETATM   22  C   UNL     1      31.334 -13.113 -16.850  1.00  0.00    -0.005 C 
HETATM   23  C   UNL     1      32.408 -12.217 -17.463  1.00  0.00     0.005 C 
ENDBRANCH  21  22
ENDBRANCH  20  21
ENDBRANCH  19  20
ENDBRANCH  18  19
ENDBRANCH  17  18
ENDBRANCH  16  17
ENDBRANCH  15  16
ENDBRANCH  14  15
ENDBRANCH  13  14
ENDBRANCH  12  13
ENDBRANCH  11  12
ENDBRANCH  10  11
ENDBRANCH   9  10
ENDBRANCH   8   9
ENDBRANCH   7   8
ENDBRANCH   6   7
ENDBRANCH   5   6
ENDBRANCH   3   5
ENDBRANCH   1   3
TORSDOF 19
ENDMDL
MODEL 20
REMARK VINA RESULT:      -4.3      3.787      7.203
REMARK  19 active torsions:
REMARK  status: ('A' for Active; 'I' for Inactive)
REMARK    1  A    between atoms: O_1  and  C_22 
REMARK    2  A    between atoms: C_3  and  C_4 
REMARK    3  A    between atoms: C_3  and  C_5 
REMARK    4  A    between atoms: C_4  and  C_6 
REMARK    5  A    between atoms: C_5  and  C_7 
REMARK    6  A    between atoms: C_6  and  C_8 
REMARK    7  A    between atoms: C_7  and  C_9 
REMARK    8  A    between atoms: C_8  and  C_10 
REMARK    9  A    between atoms: C_9  and  C_11 
REMARK   10  A    between atoms: C_10  and  C_12 
REMARK   11  A    between atoms: C_11  and  C_13 
REMARK   12  A    between atoms: C_12  and  C_14 
REMARK   13  A    between atoms: C_13  and  C_15 
REMARK   14  A    between atoms: C_14  and  C_16 
REMARK   15  A    between atoms: C_15  and  C_17 
REMARK   16  A    between atoms: C_16  and  C_18 
REMARK   17  A    between atoms: C_17  and  C_19 
REMARK   18  A    between atoms: C_18  and  C_20 
REMARK   19  A    between atoms: C_20  and  C_22 
ROOT
HETATM    1  O   UNL     1      33.303 -11.474 -11.276  1.00  0.00    -0.776 OA
HETATM    2  H   UNL     1      32.958 -10.574 -11.190  1.00  0.00     0.167 HD
ENDROOT
BRANCH   1   3
HETATM    3  C   UNL     1      32.811 -12.491 -10.538  1.00  0.00     0.139 C 
HETATM    4  O   UNL     1      33.536 -13.067  -9.740  1.00  0.00    -0.650 OA
BRANCH   3   5
HETATM    5  C   UNL     1      31.388 -12.947 -10.718  1.00  0.00     0.110 C 
BRANCH   5   6
HETATM    6  C   UNL     1      30.955 -13.050 -12.193  1.00  0.00     0.010 C 
BRANCH   6   7
HETATM    7  C   UNL     1      31.998 -13.644 -13.161  1.00  0.00     0.001 C 
BRANCH   7   8
HETATM    8  C   UNL     1      31.653 -13.501 -14.657  1.00  0.00     0.000 C 
BRANCH   8   9
HETATM    9  C   UNL     1      32.609 -12.600 -15.465  1.00  0.00     0.000 C 
BRANCH   9  10
HETATM   10  C   UNL     1      32.204 -12.369 -16.934  1.00  0.00     0.000 C 
BRANCH  10  11
HETATM   11  C   UNL     1      31.463 -13.546 -17.599  1.00  0.00     0.000 C 
BRANCH  11  12
HETATM   12  C   UNL     1      32.312 -14.815 -17.813  1.00  0.00     0.000 C 
BRANCH  12  13
HETATM   13  C   UNL     1      33.837 -14.592 -17.786  1.00  0.00     0.000 C 
BRANCH  13  14
HETATM   14  C   UNL     1      34.574 -14.960 -19.090  1.00  0.00     0.000 C 
BRANCH  14  15
HETATM   15  C   UNL     1      35.970 -15.585 -18.895  1.00  0.00     0.000 C 
BRANCH  15  16
HETATM   16  C   UNL     1      36.811 -14.966 -17.761  1.00  0.00     0.000 C 
BRANCH  16  17
HETATM   17  C   UNL     1      37.198 -15.940 -16.629  1.00  0.00     0.000 C 
BRANCH  17  18
HETATM   18  C   UNL     1      36.134 -16.115 -15.526  1.00  0.00     0.000 C 
BRANCH  18  19
HETATM   19  C   UNL     1      36.198 -15.078 -14.389  1.00  0.00     0.000 C 
BRANCH  19  20
HETATM   20  C   UNL     1      35.393 -15.443 -13.126  1.00  0.00     0.000 C 
BRANCH  20  21
HETATM   21  C   UNL     1      36.230 -16.001 -11.957  1.00  0.00    -0.000 C 
BRANCH  21  22
HETATM   22  C   UNL     1      37.019 -14.950 -11.156  1.00  0.00    -0.005 C 
HETATM   23  C   UNL     1      36.899 -15.129  -9.643  1.00  0.00     0.005 C 
ENDBRANCH  21  22
ENDBRANCH  20  21
ENDBRANCH  19  20
ENDBRANCH  18  19
ENDBRANCH  17  18
ENDBRANCH  16  17
ENDBRANCH  15  16
ENDBRANCH  14  15
ENDBRANCH  13  14
ENDBRANCH  12  13
ENDBRANCH  11  12
ENDBRANCH  10  11
ENDBRANCH   9  10
ENDBRANCH   8   9
ENDBRANCH   7   8
ENDBRANCH   6   7
ENDBRANCH   5   6
ENDBRANCH   3   5
ENDBRANCH   1   3
TORSDOF 19
ENDMDL
