MODEL 1
REMARK VINA RESULT:      -5.1      0.000      0.000
REMARK  16 active torsions:
REMARK  status: ('A' for Active; 'I' for Inactive)
REMARK    1  A    between atoms: O_1  and  C_20 
REMARK    2  A    between atoms: C_3  and  C_4 
REMARK    3  A    between atoms: C_3  and  C_5 
REMARK    4  A    between atoms: C_4  and  C_8 
REMARK    5  A    between atoms: C_5  and  C_11 
REMARK    6  A    between atoms: C_6  and  C_7 
REMARK    7  A    between atoms: C_6  and  C_9 
REMARK    8  A    between atoms: C_7  and  C_10 
REMARK    9  A    between atoms: C_8  and  C_12 
REMARK   10  A    between atoms: C_9  and  C_13 
REMARK   11  A    between atoms: C_10  and  C_14 
REMARK   12  A    between atoms: C_11  and  C_15 
REMARK   13  A    between atoms: C_12  and  C_16 
REMARK   14  A    between atoms: C_13  and  C_17 
REMARK   15  A    between atoms: C_14  and  C_18 
REMARK   16  A    between atoms: C_18  and  C_20 
ROOT
HETATM    1  O   UNL     1      37.934 -14.240 -15.529  1.00  0.00    -0.776 OA
HETATM    2  H   UNL     1      37.954 -13.292 -15.339  1.00  0.00     0.167 HD
ENDROOT
BRANCH   1   3
HETATM    3  C   UNL     1      36.773 -14.892 -15.746  1.00  0.00     0.139 C 
HETATM    4  O   UNL     1      35.774 -14.579 -15.112  1.00  0.00    -0.650 OA
BRANCH   3   5
HETATM    5  C   UNL     1      36.733 -15.995 -16.770  1.00  0.00     0.110 C 
BRANCH   5   6
HETATM    6  C   UNL     1      36.485 -15.485 -18.197  1.00  0.00     0.010 C 
BRANCH   6   7
HETATM    7  C   UNL     1      37.806 -15.312 -18.956  1.00  0.00     0.001 C 
BRANCH   7   8
HETATM    8  C   UNL     1      37.550 -15.005 -20.436  1.00  0.00     0.000 C 
BRANCH   8   9
HETATM    9  C   UNL     1      36.051 -15.050 -20.757  1.00  0.00     0.000 C 
BRANCH   9  10
HETATM   10  C   UNL     1      35.805 -14.757 -22.241  1.00  0.00     0.004 C 
BRANCH  10  11
HETATM   11  C   UNL     1      35.097 -15.926 -22.931  1.00  0.00     0.027 C 
BRANCH  11  12
HETATM   12  C   UNL     1      33.661 -15.988 -22.466  1.00  0.00    -0.031 C 
HETATM   13  C   UNL     1      32.612 -15.332 -23.001  1.00  0.00    -0.031 C 
BRANCH  13  14
HETATM   14  C   UNL     1      32.634 -14.382 -24.179  1.00  0.00     0.027 C 
BRANCH  14  15
HETATM   15  C   UNL     1      32.230 -12.959 -23.754  1.00  0.00     0.004 C 
BRANCH  15  16
HETATM   16  C   UNL     1      33.172 -12.313 -22.717  1.00  0.00     0.000 C 
BRANCH  16  17
HETATM   17  C   UNL     1      32.428 -11.714 -21.513  1.00  0.00     0.000 C 
BRANCH  17  18
HETATM   18  C   UNL     1      31.325 -12.658 -21.018  1.00  0.00     0.000 C 
BRANCH  18  19
HETATM   19  C   UNL     1      31.519 -13.002 -19.536  1.00  0.00    -0.000 C 
BRANCH  19  20
HETATM   20  C   UNL     1      32.782 -13.845 -19.326  1.00  0.00    -0.005 C 
HETATM   21  C   UNL     1      33.582 -13.350 -18.125  1.00  0.00     0.005 C 
ENDBRANCH  19  20
ENDBRANCH  18  19
ENDBRANCH  17  18
ENDBRANCH  16  17
ENDBRANCH  15  16
ENDBRANCH  14  15
ENDBRANCH  13  14
ENDBRANCH  11  12
ENDBRANCH  10  11
ENDBRANCH   9  10
ENDBRANCH   8   9
ENDBRANCH   7   8
ENDBRANCH   6   7
ENDBRANCH   5   6
ENDBRANCH   3   5
ENDBRANCH   1   3
TORSDOF 16
ENDMDL
MODEL 2
REMARK VINA RESULT:      -5.0      3.843      7.921
REMARK  16 active torsions:
REMARK  status: ('A' for Active; 'I' for Inactive)
REMARK    1  A    between atoms: O_1  and  C_20 
REMARK    2  A    between atoms: C_3  and  C_4 
REMARK    3  A    between atoms: C_3  and  C_5 
REMARK    4  A    between atoms: C_4  and  C_8 
REMARK    5  A    between atoms: C_5  and  C_11 
REMARK    6  A    between atoms: C_6  and  C_7 
REMARK    7  A    between atoms: C_6  and  C_9 
REMARK    8  A    between atoms: C_7  and  C_10 
REMARK    9  A    between atoms: C_8  and  C_12 
REMARK   10  A    between atoms: C_9  and  C_13 
REMARK   11  A    between atoms: C_10  and  C_14 
REMARK   12  A    between atoms: C_11  and  C_15 
REMARK   13  A    between atoms: C_12  and  C_16 
REMARK   14  A    between atoms: C_13  and  C_17 
REMARK   15  A    between atoms: C_14  and  C_18 
REMARK   16  A    between atoms: C_18  and  C_20 
ROOT
HETATM    1  O   UNL     1      30.812 -16.239 -17.796  1.00  0.00    -0.776 OA
HETATM    2  H   UNL     1      30.914 -17.146 -18.118  1.00  0.00     0.167 HD
ENDROOT
BRANCH   1   3
HETATM    3  C   UNL     1      31.563 -15.229 -18.283  1.00  0.00     0.139 C 
HETATM    4  O   UNL     1      31.632 -15.052 -19.492  1.00  0.00    -0.650 OA
BRANCH   3   5
HETATM    5  C   UNL     1      32.304 -14.340 -17.320  1.00  0.00     0.110 C 
BRANCH   5   6
HETATM    6  C   UNL     1      31.917 -12.860 -17.446  1.00  0.00     0.010 C 
BRANCH   6   7
HETATM    7  C   UNL     1      32.428 -12.053 -16.246  1.00  0.00     0.001 C 
BRANCH   7   8
HETATM    8  C   UNL     1      32.727 -12.973 -15.057  1.00  0.00     0.000 C 
BRANCH   8   9
HETATM    9  C   UNL     1      31.726 -12.745 -13.918  1.00  0.00     0.000 C 
BRANCH   9  10
HETATM   10  C   UNL     1      31.556 -14.018 -13.082  1.00  0.00     0.004 C 
BRANCH  10  11
HETATM   11  C   UNL     1      32.166 -15.234 -13.785  1.00  0.00     0.027 C 
BRANCH  11  12
HETATM   12  C   UNL     1      33.034 -15.993 -12.810  1.00  0.00    -0.031 C 
HETATM   13  C   UNL     1      34.345 -15.787 -12.568  1.00  0.00    -0.031 C 
BRANCH  13  14
HETATM   14  C   UNL     1      35.243 -14.757 -13.222  1.00  0.00     0.027 C 
BRANCH  14  15
HETATM   15  C   UNL     1      35.686 -15.215 -14.622  1.00  0.00     0.004 C 
BRANCH  15  16
HETATM   16  C   UNL     1      37.210 -15.170 -14.854  1.00  0.00     0.000 C 
BRANCH  16  17
HETATM   17  C   UNL     1      37.596 -14.675 -16.257  1.00  0.00     0.000 C 
BRANCH  17  18
HETATM   18  C   UNL     1      37.141 -15.665 -17.337  1.00  0.00     0.000 C 
BRANCH  18  19
HETATM   19  C   UNL     1      36.115 -15.021 -18.277  1.00  0.00    -0.000 C 
BRANCH  19  20
HETATM   20  C   UNL     1      36.247 -15.573 -19.701  1.00  0.00    -0.005 C 
HETATM   21  C   UNL     1      37.551 -15.118 -20.349  1.00  0.00     0.005 C 
ENDBRANCH  19  20
ENDBRANCH  18  19
ENDBRANCH  17  18
ENDBRANCH  16  17
ENDBRANCH  15  16
ENDBRANCH  14  15
ENDBRANCH  13  14
ENDBRANCH  11  12
ENDBRANCH  10  11
ENDBRANCH   9  10
ENDBRANCH   8   9
ENDBRANCH   7   8
ENDBRANCH   6   7
ENDBRANCH   5   6
ENDBRANCH   3   5
ENDBRANCH   1   3
TORSDOF 16
ENDMDL
MODEL 3
REMARK VINA RESULT:      -4.9      4.438      8.233
REMARK  16 active torsions:
REMARK  status: ('A' for Active; 'I' for Inactive)
REMARK    1  A    between atoms: O_1  and  C_20 
REMARK    2  A    between atoms: C_3  and  C_4 
REMARK    3  A    between atoms: C_3  and  C_5 
REMARK    4  A    between atoms: C_4  and  C_8 
REMARK    5  A    between atoms: C_5  and  C_11 
REMARK    6  A    between atoms: C_6  and  C_7 
REMARK    7  A    between atoms: C_6  and  C_9 
REMARK    8  A    between atoms: C_7  and  C_10 
REMARK    9  A    between atoms: C_8  and  C_12 
REMARK   10  A    between atoms: C_9  and  C_13 
REMARK   11  A    between atoms: C_10  and  C_14 
REMARK   12  A    between atoms: C_11  and  C_15 
REMARK   13  A    between atoms: C_12  and  C_16 
REMARK   14  A    between atoms: C_13  and  C_17 
REMARK   15  A    between atoms: C_14  and  C_18 
REMARK   16  A    between atoms: C_18  and  C_20 
ROOT
HETATM    1  O   UNL     1      35.413 -13.095 -17.236  1.00  0.00    -0.776 OA
HETATM    2  H   UNL     1      34.993 -12.620 -17.967  1.00  0.00     0.167 HD
ENDROOT
BRANCH   1   3
HETATM    3  C   UNL     1      35.586 -14.432 -17.271  1.00  0.00     0.139 C 
HETATM    4  O   UNL     1      36.458 -14.913 -17.984  1.00  0.00    -0.650 OA
BRANCH   3   5
HETATM    5  C   UNL     1      34.698 -15.307 -16.426  1.00  0.00     0.110 C 
BRANCH   5   6
HETATM    6  C   UNL     1      34.934 -15.130 -14.920  1.00  0.00     0.010 C 
BRANCH   6   7
HETATM    7  C   UNL     1      36.378 -15.484 -14.544  1.00  0.00     0.001 C 
BRANCH   7   8
HETATM    8  C   UNL     1      36.635 -15.226 -13.056  1.00  0.00     0.000 C 
BRANCH   8   9
HETATM    9  C   UNL     1      35.504 -15.800 -12.194  1.00  0.00     0.000 C 
BRANCH   9  10
HETATM   10  C   UNL     1      34.949 -14.732 -11.246  1.00  0.00     0.004 C 
BRANCH  10  11
HETATM   11  C   UNL     1      33.593 -15.148 -10.668  1.00  0.00     0.027 C 
BRANCH  11  12
HETATM   12  C   UNL     1      33.200 -14.189  -9.570  1.00  0.00    -0.031 C 
HETATM   13  C   UNL     1      32.726 -12.936  -9.725  1.00  0.00    -0.031 C 
BRANCH  13  14
HETATM   14  C   UNL     1      32.489 -12.206 -11.030  1.00  0.00     0.027 C 
BRANCH  14  15
HETATM   15  C   UNL     1      31.180 -12.666 -11.696  1.00  0.00     0.004 C 
BRANCH  15  16
HETATM   16  C   UNL     1      31.378 -13.571 -12.929  1.00  0.00     0.000 C 
BRANCH  16  17
HETATM   17  C   UNL     1      32.195 -12.902 -14.047  1.00  0.00     0.000 C 
BRANCH  17  18
HETATM   18  C   UNL     1      31.326 -12.638 -15.284  1.00  0.00     0.000 C 
BRANCH  18  19
HETATM   19  C   UNL     1      32.169 -12.081 -16.438  1.00  0.00    -0.000 C 
BRANCH  19  20
HETATM   20  C   UNL     1      32.052 -12.968 -17.684  1.00  0.00    -0.005 C 
HETATM   21  C   UNL     1      31.209 -14.207 -17.401  1.00  0.00     0.005 C 
ENDBRANCH  19  20
ENDBRANCH  18  19
ENDBRANCH  17  18
ENDBRANCH  16  17
ENDBRANCH  15  16
ENDBRANCH  14  15
ENDBRANCH  13  14
ENDBRANCH  11  12
ENDBRANCH  10  11
ENDBRANCH   9  10
ENDBRANCH   8   9
ENDBRANCH   7   8
ENDBRANCH   6   7
ENDBRANCH   5   6
ENDBRANCH   3   5
ENDBRANCH   1   3
TORSDOF 16
ENDMDL
MODEL 4
REMARK VINA RESULT:      -4.9      2.090      3.490
REMARK  16 active torsions:
REMARK  status: ('A' for Active; 'I' for Inactive)
REMARK    1  A    between atoms: O_1  and  C_20 
REMARK    2  A    between atoms: C_3  and  C_4 
REMARK    3  A    between atoms: C_3  and  C_5 
REMARK    4  A    between atoms: C_4  and  C_8 
REMARK    5  A    between atoms: C_5  and  C_11 
REMARK    6  A    between atoms: C_6  and  C_7 
REMARK    7  A    between atoms: C_6  and  C_9 
REMARK    8  A    between atoms: C_7  and  C_10 
REMARK    9  A    between atoms: C_8  and  C_12 
REMARK   10  A    between atoms: C_9  and  C_13 
REMARK   11  A    between atoms: C_10  and  C_14 
REMARK   12  A    between atoms: C_11  and  C_15 
REMARK   13  A    between atoms: C_12  and  C_16 
REMARK   14  A    between atoms: C_13  and  C_17 
REMARK   15  A    between atoms: C_14  and  C_18 
REMARK   16  A    between atoms: C_18  and  C_20 
ROOT
HETATM    1  O   UNL     1      35.175 -13.002 -17.347  1.00  0.00    -0.776 OA
HETATM    2  H   UNL     1      34.304 -12.589 -17.263  1.00  0.00     0.167 HD
ENDROOT
BRANCH   1   3
HETATM    3  C   UNL     1      35.395 -14.273 -16.950  1.00  0.00     0.139 C 
HETATM    4  O   UNL     1      36.057 -14.489 -15.944  1.00  0.00    -0.650 OA
BRANCH   3   5
HETATM    5  C   UNL     1      34.814 -15.402 -17.760  1.00  0.00     0.110 C 
BRANCH   5   6
HETATM    6  C   UNL     1      35.818 -16.014 -18.747  1.00  0.00     0.010 C 
BRANCH   6   7
HETATM    7  C   UNL     1      35.922 -15.167 -20.022  1.00  0.00     0.001 C 
BRANCH   7   8
HETATM    8  C   UNL     1      36.283 -16.038 -21.230  1.00  0.00     0.000 C 
BRANCH   8   9
HETATM    9  C   UNL     1      35.251 -15.878 -22.353  1.00  0.00     0.000 C 
BRANCH   9  10
HETATM   10  C   UNL     1      34.822 -14.414 -22.493  1.00  0.00     0.004 C 
BRANCH  10  11
HETATM   11  C   UNL     1      33.299 -14.283 -22.566  1.00  0.00     0.027 C 
BRANCH  11  12
HETATM   12  C   UNL     1      32.919 -12.821 -22.534  1.00  0.00    -0.031 C 
HETATM   13  C   UNL     1      32.728 -12.062 -21.437  1.00  0.00    -0.031 C 
BRANCH  13  14
HETATM   14  C   UNL     1      32.842 -12.500 -19.992  1.00  0.00     0.027 C 
BRANCH  14  15
HETATM   15  C   UNL     1      31.479 -12.952 -19.439  1.00  0.00     0.004 C 
BRANCH  15  16
HETATM   16  C   UNL     1      31.568 -13.883 -18.212  1.00  0.00     0.000 C 
BRANCH  16  17
HETATM   17  C   UNL     1      31.001 -13.252 -16.930  1.00  0.00     0.000 C 
BRANCH  17  18
HETATM   18  C   UNL     1      31.999 -12.262 -16.313  1.00  0.00     0.000 C 
BRANCH  18  19
HETATM   19  C   UNL     1      32.379 -12.681 -14.888  1.00  0.00    -0.000 C 
BRANCH  19  20
HETATM   20  C   UNL     1      31.754 -14.033 -14.525  1.00  0.00    -0.005 C 
HETATM   21  C   UNL     1      32.817 -15.123 -14.432  1.00  0.00     0.005 C 
ENDBRANCH  19  20
ENDBRANCH  18  19
ENDBRANCH  17  18
ENDBRANCH  16  17
ENDBRANCH  15  16
ENDBRANCH  14  15
ENDBRANCH  13  14
ENDBRANCH  11  12
ENDBRANCH  10  11
ENDBRANCH   9  10
ENDBRANCH   8   9
ENDBRANCH   7   8
ENDBRANCH   6   7
ENDBRANCH   5   6
ENDBRANCH   3   5
ENDBRANCH   1   3
TORSDOF 16
ENDMDL
MODEL 5
REMARK VINA RESULT:      -4.9      4.769      9.457
REMARK  16 active torsions:
REMARK  status: ('A' for Active; 'I' for Inactive)
REMARK    1  A    between atoms: O_1  and  C_20 
REMARK    2  A    between atoms: C_3  and  C_4 
REMARK    3  A    between atoms: C_3  and  C_5 
REMARK    4  A    between atoms: C_4  and  C_8 
REMARK    5  A    between atoms: C_5  and  C_11 
REMARK    6  A    between atoms: C_6  and  C_7 
REMARK    7  A    between atoms: C_6  and  C_9 
REMARK    8  A    between atoms: C_7  and  C_10 
REMARK    9  A    between atoms: C_8  and  C_12 
REMARK   10  A    between atoms: C_9  and  C_13 
REMARK   11  A    between atoms: C_10  and  C_14 
REMARK   12  A    between atoms: C_11  and  C_15 
REMARK   13  A    between atoms: C_12  and  C_16 
REMARK   14  A    between atoms: C_13  and  C_17 
REMARK   15  A    between atoms: C_14  and  C_18 
REMARK   16  A    between atoms: C_18  and  C_20 
ROOT
HETATM    1  O   UNL     1      35.628 -14.450 -18.270  1.00  0.00    -0.776 OA
HETATM    2  H   UNL     1      36.465 -14.160 -17.879  1.00  0.00     0.167 HD
ENDROOT
BRANCH   1   3
HETATM    3  C   UNL     1      35.005 -15.571 -17.851  1.00  0.00     0.139 C 
HETATM    4  O   UNL     1      35.638 -16.612 -17.740  1.00  0.00    -0.650 OA
BRANCH   3   5
HETATM    5  C   UNL     1      33.535 -15.513 -17.528  1.00  0.00     0.110 C 
BRANCH   5   6
HETATM    6  C   UNL     1      33.116 -14.196 -16.860  1.00  0.00     0.010 C 
BRANCH   6   7
HETATM    7  C   UNL     1      32.503 -14.452 -15.477  1.00  0.00     0.001 C 
BRANCH   7   8
HETATM    8  C   UNL     1      31.636 -13.268 -15.036  1.00  0.00     0.000 C 
BRANCH   8   9
HETATM    9  C   UNL     1      31.596 -13.153 -13.508  1.00  0.00     0.000 C 
BRANCH   9  10
HETATM   10  C   UNL     1      32.813 -12.379 -12.990  1.00  0.00     0.004 C 
BRANCH  10  11
HETATM   11  C   UNL     1      32.503 -11.671 -11.668  1.00  0.00     0.027 C 
BRANCH  11  12
HETATM   12  C   UNL     1      31.470 -12.463 -10.904  1.00  0.00    -0.031 C 
HETATM   13  C   UNL     1      31.698 -13.303  -9.874  1.00  0.00    -0.031 C 
BRANCH  13  14
HETATM   14  C   UNL     1      33.037 -13.648  -9.257  1.00  0.00     0.027 C 
BRANCH  14  15
HETATM   15  C   UNL     1      33.572 -14.985  -9.799  1.00  0.00     0.004 C 
BRANCH  15  16
HETATM   16  C   UNL     1      34.490 -14.851 -11.031  1.00  0.00     0.000 C 
BRANCH  16  17
HETATM   17  C   UNL     1      35.934 -15.306 -10.764  1.00  0.00     0.000 C 
BRANCH  17  18
HETATM   18  C   UNL     1      36.753 -15.335 -12.061  1.00  0.00     0.000 C 
BRANCH  18  19
HETATM   19  C   UNL     1      35.864 -15.060 -13.279  1.00  0.00    -0.000 C 
BRANCH  19  20
HETATM   20  C   UNL     1      36.664 -15.170 -14.583  1.00  0.00    -0.005 C 
HETATM   21  C   UNL     1      38.165 -15.146 -14.311  1.00  0.00     0.005 C 
ENDBRANCH  19  20
ENDBRANCH  18  19
ENDBRANCH  17  18
ENDBRANCH  16  17
ENDBRANCH  15  16
ENDBRANCH  14  15
ENDBRANCH  13  14
ENDBRANCH  11  12
ENDBRANCH  10  11
ENDBRANCH   9  10
ENDBRANCH   8   9
ENDBRANCH   7   8
ENDBRANCH   6   7
ENDBRANCH   5   6
ENDBRANCH   3   5
ENDBRANCH   1   3
TORSDOF 16
ENDMDL
MODEL 6
REMARK VINA RESULT:      -4.9      3.337      6.975
REMARK  16 active torsions:
REMARK  status: ('A' for Active; 'I' for Inactive)
REMARK    1  A    between atoms: O_1  and  C_20 
REMARK    2  A    between atoms: C_3  and  C_4 
REMARK    3  A    between atoms: C_3  and  C_5 
REMARK    4  A    between atoms: C_4  and  C_8 
REMARK    5  A    between atoms: C_5  and  C_11 
REMARK    6  A    between atoms: C_6  and  C_7 
REMARK    7  A    between atoms: C_6  and  C_9 
REMARK    8  A    between atoms: C_7  and  C_10 
REMARK    9  A    between atoms: C_8  and  C_12 
REMARK   10  A    between atoms: C_9  and  C_13 
REMARK   11  A    between atoms: C_10  and  C_14 
REMARK   12  A    between atoms: C_11  and  C_15 
REMARK   13  A    between atoms: C_12  and  C_16 
REMARK   14  A    between atoms: C_13  and  C_17 
REMARK   15  A    between atoms: C_14  and  C_18 
REMARK   16  A    between atoms: C_18  and  C_20 
ROOT
HETATM    1  O   UNL     1      35.971 -14.441 -18.690  1.00  0.00    -0.776 OA
HETATM    2  H   UNL     1      35.590 -14.654 -19.554  1.00  0.00     0.167 HD
ENDROOT
BRANCH   1   3
HETATM    3  C   UNL     1      36.847 -15.268 -18.083  1.00  0.00     0.139 C 
HETATM    4  O   UNL     1      37.977 -15.393 -18.535  1.00  0.00    -0.650 OA
BRANCH   3   5
HETATM    5  C   UNL     1      36.411 -16.022 -16.854  1.00  0.00     0.110 C 
BRANCH   5   6
HETATM    6  C   UNL     1      36.275 -15.128 -15.614  1.00  0.00     0.010 C 
BRANCH   6   7
HETATM    7  C   UNL     1      37.544 -15.183 -14.755  1.00  0.00     0.001 C 
BRANCH   7   8
HETATM    8  C   UNL     1      37.195 -15.399 -13.278  1.00  0.00     0.000 C 
BRANCH   8   9
HETATM    9  C   UNL     1      35.687 -15.258 -13.041  1.00  0.00     0.000 C 
BRANCH   9  10
HETATM   10  C   UNL     1      35.411 -14.479 -11.751  1.00  0.00     0.004 C 
BRANCH  10  11
HETATM   11  C   UNL     1      33.959 -14.648 -11.296  1.00  0.00     0.027 C 
BRANCH  11  12
HETATM   12  C   UNL     1      33.167 -13.420 -11.677  1.00  0.00    -0.031 C 
HETATM   13  C   UNL     1      32.157 -13.356 -12.567  1.00  0.00    -0.031 C 
BRANCH  13  14
HETATM   14  C   UNL     1      31.593 -14.494 -13.391  1.00  0.00     0.027 C 
BRANCH  14  15
HETATM   15  C   UNL     1      32.193 -14.505 -14.809  1.00  0.00     0.004 C 
BRANCH  15  16
HETATM   16  C   UNL     1      31.152 -14.387 -15.941  1.00  0.00     0.000 C 
BRANCH  16  17
HETATM   17  C   UNL     1      30.907 -12.937 -16.390  1.00  0.00     0.000 C 
BRANCH  17  18
HETATM   18  C   UNL     1      32.142 -12.359 -17.093  1.00  0.00     0.000 C 
BRANCH  18  19
HETATM   19  C   UNL     1      32.551 -13.227 -18.288  1.00  0.00    -0.000 C 
BRANCH  19  20
HETATM   20  C   UNL     1      31.559 -13.073 -19.447  1.00  0.00    -0.005 C 
HETATM   21  C   UNL     1      31.273 -14.417 -20.109  1.00  0.00     0.005 C 
ENDBRANCH  19  20
ENDBRANCH  18  19
ENDBRANCH  17  18
ENDBRANCH  16  17
ENDBRANCH  15  16
ENDBRANCH  14  15
ENDBRANCH  13  14
ENDBRANCH  11  12
ENDBRANCH  10  11
ENDBRANCH   9  10
ENDBRANCH   8   9
ENDBRANCH   7   8
ENDBRANCH   6   7
ENDBRANCH   5   6
ENDBRANCH   3   5
ENDBRANCH   1   3
TORSDOF 16
ENDMDL
MODEL 7
REMARK VINA RESULT:      -4.9      3.429      5.340
REMARK  16 active torsions:
REMARK  status: ('A' for Active; 'I' for Inactive)
REMARK    1  A    between atoms: O_1  and  C_20 
REMARK    2  A    between atoms: C_3  and  C_4 
REMARK    3  A    between atoms: C_3  and  C_5 
REMARK    4  A    between atoms: C_4  and  C_8 
REMARK    5  A    between atoms: C_5  and  C_11 
REMARK    6  A    between atoms: C_6  and  C_7 
REMARK    7  A    between atoms: C_6  and  C_9 
REMARK    8  A    between atoms: C_7  and  C_10 
REMARK    9  A    between atoms: C_8  and  C_12 
REMARK   10  A    between atoms: C_9  and  C_13 
REMARK   11  A    between atoms: C_10  and  C_14 
REMARK   12  A    between atoms: C_11  and  C_15 
REMARK   13  A    between atoms: C_12  and  C_16 
REMARK   14  A    between atoms: C_13  and  C_17 
REMARK   15  A    between atoms: C_14  and  C_18 
REMARK   16  A    between atoms: C_18  and  C_20 
ROOT
HETATM    1  O   UNL     1      34.474 -15.875 -11.897  1.00  0.00    -0.776 OA
HETATM    2  H   UNL     1      34.119 -16.400 -12.629  1.00  0.00     0.167 HD
ENDROOT
BRANCH   1   3
HETATM    3  C   UNL     1      35.487 -15.003 -12.081  1.00  0.00     0.139 C 
HETATM    4  O   UNL     1      35.515 -13.960 -11.441  1.00  0.00    -0.650 OA
BRANCH   3   5
HETATM    5  C   UNL     1      36.568 -15.338 -13.076  1.00  0.00     0.110 C 
BRANCH   5   6
HETATM    6  C   UNL     1      36.098 -15.234 -14.534  1.00  0.00     0.010 C 
BRANCH   6   7
HETATM    7  C   UNL     1      37.291 -15.088 -15.487  1.00  0.00     0.001 C 
BRANCH   7   8
HETATM    8  C   UNL     1      36.816 -14.889 -16.930  1.00  0.00     0.000 C 
BRANCH   8   9
HETATM    9  C   UNL     1      35.291 -14.753 -16.996  1.00  0.00     0.000 C 
BRANCH   9  10
HETATM   10  C   UNL     1      34.680 -15.886 -17.827  1.00  0.00     0.004 C 
BRANCH  10  11
HETATM   11  C   UNL     1      33.150 -15.866 -17.760  1.00  0.00     0.027 C 
BRANCH  11  12
HETATM   12  C   UNL     1      32.598 -15.320 -19.055  1.00  0.00    -0.031 C 
HETATM   13  C   UNL     1      32.260 -14.041 -19.312  1.00  0.00    -0.031 C 
BRANCH  13  14
HETATM   14  C   UNL     1      32.349 -12.865 -18.361  1.00  0.00     0.027 C 
BRANCH  14  15
HETATM   15  C   UNL     1      31.309 -12.982 -17.233  1.00  0.00     0.004 C 
BRANCH  15  16
HETATM   16  C   UNL     1      31.743 -12.344 -15.898  1.00  0.00     0.000 C 
BRANCH  16  17
HETATM   17  C   UNL     1      32.483 -13.322 -14.971  1.00  0.00     0.000 C 
BRANCH  17  18
HETATM   18  C   UNL     1      31.587 -14.508 -14.591  1.00  0.00     0.000 C 
BRANCH  18  19
HETATM   19  C   UNL     1      31.520 -14.682 -13.069  1.00  0.00    -0.000 C 
BRANCH  19  20
HETATM   20  C   UNL     1      31.992 -13.414 -12.348  1.00  0.00    -0.005 C 
HETATM   21  C   UNL     1      30.904 -12.865 -11.431  1.00  0.00     0.005 C 
ENDBRANCH  19  20
ENDBRANCH  18  19
ENDBRANCH  17  18
ENDBRANCH  16  17
ENDBRANCH  15  16
ENDBRANCH  14  15
ENDBRANCH  13  14
ENDBRANCH  11  12
ENDBRANCH  10  11
ENDBRANCH   9  10
ENDBRANCH   8   9
ENDBRANCH   7   8
ENDBRANCH   6   7
ENDBRANCH   5   6
ENDBRANCH   3   5
ENDBRANCH   1   3
TORSDOF 16
ENDMDL
MODEL 8
REMARK VINA RESULT:      -4.9      8.072     11.930
REMARK  16 active torsions:
REMARK  status: ('A' for Active; 'I' for Inactive)
REMARK    1  A    between atoms: O_1  and  C_20 
REMARK    2  A    between atoms: C_3  and  C_4 
REMARK    3  A    between atoms: C_3  and  C_5 
REMARK    4  A    between atoms: C_4  and  C_8 
REMARK    5  A    between atoms: C_5  and  C_11 
REMARK    6  A    between atoms: C_6  and  C_7 
REMARK    7  A    between atoms: C_6  and  C_9 
REMARK    8  A    between atoms: C_7  and  C_10 
REMARK    9  A    between atoms: C_8  and  C_12 
REMARK   10  A    between atoms: C_9  and  C_13 
REMARK   11  A    between atoms: C_10  and  C_14 
REMARK   12  A    between atoms: C_11  and  C_15 
REMARK   13  A    between atoms: C_12  and  C_16 
REMARK   14  A    between atoms: C_13  and  C_17 
REMARK   15  A    between atoms: C_14  and  C_18 
REMARK   16  A    between atoms: C_18  and  C_20 
ROOT
HETATM    1  O   UNL     1      33.836 -13.226  -5.747  1.00  0.00    -0.776 OA
HETATM    2  H   UNL     1      34.685 -13.689  -5.792  1.00  0.00     0.167 HD
ENDROOT
BRANCH   1   3
HETATM    3  C   UNL     1      33.415 -12.427  -6.749  1.00  0.00     0.139 C 
HETATM    4  O   UNL     1      34.233 -11.911  -7.499  1.00  0.00    -0.650 OA
BRANCH   3   5
HETATM    5  C   UNL     1      31.938 -12.187  -6.921  1.00  0.00     0.110 C 
BRANCH   5   6
HETATM    6  C   UNL     1      31.193 -13.400  -7.497  1.00  0.00     0.010 C 
BRANCH   6   7
HETATM    7  C   UNL     1      31.546 -13.610  -8.975  1.00  0.00     0.001 C 
BRANCH   7   8
HETATM    8  C   UNL     1      32.053 -15.035  -9.219  1.00  0.00     0.000 C 
BRANCH   8   9
HETATM    9  C   UNL     1      33.574 -15.118  -9.041  1.00  0.00     0.000 C 
BRANCH   9  10
HETATM   10  C   UNL     1      33.933 -16.014  -7.851  1.00  0.00     0.004 C 
BRANCH  10  11
HETATM   11  C   UNL     1      35.395 -16.465  -7.913  1.00  0.00     0.027 C 
BRANCH  11  12
HETATM   12  C   UNL     1      36.288 -15.334  -7.460  1.00  0.00    -0.031 C 
HETATM   13  C   UNL     1      37.370 -14.853  -8.106  1.00  0.00    -0.031 C 
BRANCH  13  14
HETATM   14  C   UNL     1      37.939 -15.341  -9.421  1.00  0.00     0.027 C 
BRANCH  14  15
HETATM   15  C   UNL     1      36.986 -15.029 -10.589  1.00  0.00     0.004 C 
BRANCH  15  16
HETATM   16  C   UNL     1      36.485 -16.273 -11.351  1.00  0.00     0.000 C 
BRANCH  16  17
HETATM   17  C   UNL     1      35.891 -15.942 -12.730  1.00  0.00     0.000 C 
BRANCH  17  18
HETATM   18  C   UNL     1      35.315 -14.520 -12.756  1.00  0.00     0.000 C 
BRANCH  18  19
HETATM   19  C   UNL     1      33.845 -14.514 -12.321  1.00  0.00    -0.000 C 
BRANCH  19  20
HETATM   20  C   UNL     1      33.083 -15.693 -12.937  1.00  0.00    -0.005 C 
HETATM   21  C   UNL     1      31.772 -15.232 -13.566  1.00  0.00     0.005 C 
ENDBRANCH  19  20
ENDBRANCH  18  19
ENDBRANCH  17  18
ENDBRANCH  16  17
ENDBRANCH  15  16
ENDBRANCH  14  15
ENDBRANCH  13  14
ENDBRANCH  11  12
ENDBRANCH  10  11
ENDBRANCH   9  10
ENDBRANCH   8   9
ENDBRANCH   7   8
ENDBRANCH   6   7
ENDBRANCH   5   6
ENDBRANCH   3   5
ENDBRANCH   1   3
TORSDOF 16
ENDMDL
MODEL 9
REMARK VINA RESULT:      -4.9      2.778      5.210
REMARK  16 active torsions:
REMARK  status: ('A' for Active; 'I' for Inactive)
REMARK    1  A    between atoms: O_1  and  C_20 
REMARK    2  A    between atoms: C_3  and  C_4 
REMARK    3  A    between atoms: C_3  and  C_5 
REMARK    4  A    between atoms: C_4  and  C_8 
REMARK    5  A    between atoms: C_5  and  C_11 
REMARK    6  A    between atoms: C_6  and  C_7 
REMARK    7  A    between atoms: C_6  and  C_9 
REMARK    8  A    between atoms: C_7  and  C_10 
REMARK    9  A    between atoms: C_8  and  C_12 
REMARK   10  A    between atoms: C_9  and  C_13 
REMARK   11  A    between atoms: C_10  and  C_14 
REMARK   12  A    between atoms: C_11  and  C_15 
REMARK   13  A    between atoms: C_12  and  C_16 
REMARK   14  A    between atoms: C_13  and  C_17 
REMARK   15  A    between atoms: C_14  and  C_18 
REMARK   16  A    between atoms: C_18  and  C_20 
ROOT
HETATM    1  O   UNL     1      37.735 -14.912 -23.628  1.00  0.00    -0.776 OA
HETATM    2  H   UNL     1      37.814 -13.975 -23.860  1.00  0.00     0.167 HD
ENDROOT
BRANCH   1   3
HETATM    3  C   UNL     1      37.011 -15.315 -22.563  1.00  0.00     0.139 C 
HETATM    4  O   UNL     1      36.057 -16.064 -22.726  1.00  0.00    -0.650 OA
BRANCH   3   5
HETATM    5  C   UNL     1      37.396 -14.831 -21.190  1.00  0.00     0.110 C 
BRANCH   5   6
HETATM    6  C   UNL     1      36.226 -14.839 -20.197  1.00  0.00     0.010 C 
BRANCH   6   7
HETATM    7  C   UNL     1      36.496 -15.806 -19.037  1.00  0.00     0.001 C 
BRANCH   7   8
HETATM    8  C   UNL     1      37.700 -15.345 -18.209  1.00  0.00     0.000 C 
BRANCH   8   9
HETATM    9  C   UNL     1      37.279 -14.978 -16.781  1.00  0.00     0.000 C 
BRANCH   9  10
HETATM   10  C   UNL     1      36.426 -16.091 -16.164  1.00  0.00     0.004 C 
BRANCH  10  11
HETATM   11  C   UNL     1      35.241 -15.518 -15.381  1.00  0.00     0.027 C 
BRANCH  11  12
HETATM   12  C   UNL     1      34.716 -14.293 -16.091  1.00  0.00    -0.031 C 
HETATM   13  C   UNL     1      33.754 -14.259 -17.036  1.00  0.00    -0.031 C 
BRANCH  13  14
HETATM   14  C   UNL     1      32.991 -15.437 -17.604  1.00  0.00     0.027 C 
BRANCH  14  15
HETATM   15  C   UNL     1      32.790 -15.289 -19.123  1.00  0.00     0.004 C 
BRANCH  15  16
HETATM   16  C   UNL     1      31.406 -14.747 -19.532  1.00  0.00     0.000 C 
BRANCH  16  17
HETATM   17  C   UNL     1      31.360 -13.214 -19.632  1.00  0.00     0.000 C 
BRANCH  17  18
HETATM   18  C   UNL     1      32.690 -12.654 -20.155  1.00  0.00     0.000 C 
BRANCH  18  19
HETATM   19  C   UNL     1      32.468 -11.777 -21.393  1.00  0.00    -0.000 C 
BRANCH  19  20
HETATM   20  C   UNL     1      33.439 -12.155 -22.519  1.00  0.00    -0.005 C 
HETATM   21  C   UNL     1      33.514 -13.669 -22.695  1.00  0.00     0.005 C 
ENDBRANCH  19  20
ENDBRANCH  18  19
ENDBRANCH  17  18
ENDBRANCH  16  17
ENDBRANCH  15  16
ENDBRANCH  14  15
ENDBRANCH  13  14
ENDBRANCH  11  12
ENDBRANCH  10  11
ENDBRANCH   9  10
ENDBRANCH   8   9
ENDBRANCH   7   8
ENDBRANCH   6   7
ENDBRANCH   5   6
ENDBRANCH   3   5
ENDBRANCH   1   3
TORSDOF 16
ENDMDL
MODEL 10
REMARK VINA RESULT:      -4.8      2.537      5.653
REMARK  16 active torsions:
REMARK  status: ('A' for Active; 'I' for Inactive)
REMARK    1  A    between atoms: O_1  and  C_20 
REMARK    2  A    between atoms: C_3  and  C_4 
REMARK    3  A    between atoms: C_3  and  C_5 
REMARK    4  A    between atoms: C_4  and  C_8 
REMARK    5  A    between atoms: C_5  and  C_11 
REMARK    6  A    between atoms: C_6  and  C_7 
REMARK    7  A    between atoms: C_6  and  C_9 
REMARK    8  A    between atoms: C_7  and  C_10 
REMARK    9  A    between atoms: C_8  and  C_12 
REMARK   10  A    between atoms: C_9  and  C_13 
REMARK   11  A    between atoms: C_10  and  C_14 
REMARK   12  A    between atoms: C_11  and  C_15 
REMARK   13  A    between atoms: C_12  and  C_16 
REMARK   14  A    between atoms: C_13  and  C_17 
REMARK   15  A    between atoms: C_14  and  C_18 
REMARK   16  A    between atoms: C_18  and  C_20 
ROOT
HETATM    1  O   UNL     1      37.660 -14.365 -17.238  1.00  0.00    -0.776 OA
HETATM    2  H   UNL     1      38.412 -14.228 -17.832  1.00  0.00     0.167 HD
ENDROOT
BRANCH   1   3
HETATM    3  C   UNL     1      36.519 -14.944 -17.666  1.00  0.00     0.139 C 
HETATM    4  O   UNL     1      36.078 -14.670 -18.775  1.00  0.00    -0.650 OA
BRANCH   3   5
HETATM    5  C   UNL     1      35.810 -15.920 -16.765  1.00  0.00     0.110 C 
BRANCH   5   6
HETATM    6  C   UNL     1      36.263 -15.827 -15.301  1.00  0.00     0.010 C 
BRANCH   6   7
HETATM    7  C   UNL     1      35.361 -14.875 -14.506  1.00  0.00     0.001 C 
BRANCH   7   8
HETATM    8  C   UNL     1      33.902 -14.998 -14.960  1.00  0.00     0.000 C 
BRANCH   8   9
HETATM    9  C   UNL     1      33.007 -15.485 -13.815  1.00  0.00     0.000 C 
BRANCH   9  10
HETATM   10  C   UNL     1      31.586 -14.932 -13.962  1.00  0.00     0.004 C 
BRANCH  10  11
HETATM   11  C   UNL     1      31.594 -13.411 -14.133  1.00  0.00     0.027 C 
BRANCH  11  12
HETATM   12  C   UNL     1      30.891 -13.046 -15.418  1.00  0.00    -0.031 C 
HETATM   13  C   UNL     1      31.407 -12.348 -16.450  1.00  0.00    -0.031 C 
BRANCH  13  14
HETATM   14  C   UNL     1      32.801 -11.766 -16.551  1.00  0.00     0.027 C 
BRANCH  14  15
HETATM   15  C   UNL     1      33.615 -12.459 -17.657  1.00  0.00     0.004 C 
BRANCH  15  16
HETATM   16  C   UNL     1      32.928 -13.696 -18.273  1.00  0.00     0.000 C 
BRANCH  16  17
HETATM   17  C   UNL     1      32.693 -13.567 -19.787  1.00  0.00     0.000 C 
BRANCH  17  18
HETATM   18  C   UNL     1      31.647 -12.487 -20.094  1.00  0.00     0.000 C 
BRANCH  18  19
HETATM   19  C   UNL     1      30.926 -12.780 -21.416  1.00  0.00    -0.000 C 
BRANCH  19  20
HETATM   20  C   UNL     1      31.930 -13.039 -22.546  1.00  0.00    -0.005 C 
HETATM   21  C   UNL     1      31.592 -14.322 -23.298  1.00  0.00     0.005 C 
ENDBRANCH  19  20
ENDBRANCH  18  19
ENDBRANCH  17  18
ENDBRANCH  16  17
ENDBRANCH  15  16
ENDBRANCH  14  15
ENDBRANCH  13  14
ENDBRANCH  11  12
ENDBRANCH  10  11
ENDBRANCH   9  10
ENDBRANCH   8   9
ENDBRANCH   7   8
ENDBRANCH   6   7
ENDBRANCH   5   6
ENDBRANCH   3   5
ENDBRANCH   1   3
TORSDOF 16
ENDMDL
MODEL 11
REMARK VINA RESULT:      -4.7      3.127      6.390
REMARK  16 active torsions:
REMARK  status: ('A' for Active; 'I' for Inactive)
REMARK    1  A    between atoms: O_1  and  C_20 
REMARK    2  A    between atoms: C_3  and  C_4 
REMARK    3  A    between atoms: C_3  and  C_5 
REMARK    4  A    between atoms: C_4  and  C_8 
REMARK    5  A    between atoms: C_5  and  C_11 
REMARK    6  A    between atoms: C_6  and  C_7 
REMARK    7  A    between atoms: C_6  and  C_9 
REMARK    8  A    between atoms: C_7  and  C_10 
REMARK    9  A    between atoms: C_8  and  C_12 
REMARK   10  A    between atoms: C_9  and  C_13 
REMARK   11  A    between atoms: C_10  and  C_14 
REMARK   12  A    between atoms: C_11  and  C_15 
REMARK   13  A    between atoms: C_12  and  C_16 
REMARK   14  A    between atoms: C_13  and  C_17 
REMARK   15  A    between atoms: C_14  and  C_18 
REMARK   16  A    between atoms: C_18  and  C_20 
ROOT
HETATM    1  O   UNL     1      35.838 -13.486 -12.242  1.00  0.00    -0.776 OA
HETATM    2  H   UNL     1      36.261 -13.662 -13.095  1.00  0.00     0.167 HD
ENDROOT
BRANCH   1   3
HETATM    3  C   UNL     1      35.227 -14.465 -11.542  1.00  0.00     0.139 C 
HETATM    4  O   UNL     1      35.318 -14.487 -10.322  1.00  0.00    -0.650 OA
BRANCH   3   5
HETATM    5  C   UNL     1      34.442 -15.514 -12.285  1.00  0.00     0.110 C 
BRANCH   5   6
HETATM    6  C   UNL     1      33.398 -14.921 -13.241  1.00  0.00     0.010 C 
BRANCH   6   7
HETATM    7  C   UNL     1      32.835 -13.604 -12.692  1.00  0.00     0.001 C 
BRANCH   7   8
HETATM    8  C   UNL     1      31.475 -13.286 -13.322  1.00  0.00     0.000 C 
BRANCH   8   9
HETATM    9  C   UNL     1      31.366 -13.882 -14.731  1.00  0.00     0.000 C 
BRANCH   9  10
HETATM   10  C   UNL     1      31.253 -12.773 -15.782  1.00  0.00     0.004 C 
BRANCH  10  11
HETATM   11  C   UNL     1      32.616 -12.144 -16.079  1.00  0.00     0.027 C 
BRANCH  11  12
HETATM   12  C   UNL     1      32.762 -11.942 -17.569  1.00  0.00    -0.031 C 
HETATM   13  C   UNL     1      32.643 -12.885 -18.525  1.00  0.00    -0.031 C 
BRANCH  13  14
HETATM   14  C   UNL     1      32.347 -14.356 -18.325  1.00  0.00     0.027 C 
BRANCH  14  15
HETATM   15  C   UNL     1      33.275 -15.233 -19.184  1.00  0.00     0.004 C 
BRANCH  15  16
HETATM   16  C   UNL     1      34.715 -14.695 -19.316  1.00  0.00     0.000 C 
BRANCH  16  17
HETATM   17  C   UNL     1      35.779 -15.680 -18.805  1.00  0.00     0.000 C 
BRANCH  17  18
HETATM   18  C   UNL     1      35.649 -15.899 -17.292  1.00  0.00     0.000 C 
BRANCH  18  19
HETATM   19  C   UNL     1      37.015 -15.803 -16.603  1.00  0.00    -0.000 C 
BRANCH  19  20
HETATM   20  C   UNL     1      36.878 -15.248 -15.181  1.00  0.00    -0.005 C 
HETATM   21  C   UNL     1      38.221 -15.252 -14.457  1.00  0.00     0.005 C 
ENDBRANCH  19  20
ENDBRANCH  18  19
ENDBRANCH  17  18
ENDBRANCH  16  17
ENDBRANCH  15  16
ENDBRANCH  14  15
ENDBRANCH  13  14
ENDBRANCH  11  12
ENDBRANCH  10  11
ENDBRANCH   9  10
ENDBRANCH   8   9
ENDBRANCH   7   8
ENDBRANCH   6   7
ENDBRANCH   5   6
ENDBRANCH   3   5
ENDBRANCH   1   3
TORSDOF 16
ENDMDL
MODEL 12
REMARK VINA RESULT:      -4.7      6.604     10.391
REMARK  16 active torsions:
REMARK  status: ('A' for Active; 'I' for Inactive)
REMARK    1  A    between atoms: O_1  and  C_20 
REMARK    2  A    between atoms: C_3  and  C_4 
REMARK    3  A    between atoms: C_3  and  C_5 
REMARK    4  A    between atoms: C_4  and  C_8 
REMARK    5  A    between atoms: C_5  and  C_11 
REMARK    6  A    between atoms: C_6  and  C_7 
REMARK    7  A    between atoms: C_6  and  C_9 
REMARK    8  A    between atoms: C_7  and  C_10 
REMARK    9  A    between atoms: C_8  and  C_12 
REMARK   10  A    between atoms: C_9  and  C_13 
REMARK   11  A    between atoms: C_10  and  C_14 
REMARK   12  A    between atoms: C_11  and  C_15 
REMARK   13  A    between atoms: C_12  and  C_16 
REMARK   14  A    between atoms: C_13  and  C_17 
REMARK   15  A    between atoms: C_14  and  C_18 
REMARK   16  A    between atoms: C_18  and  C_20 
ROOT
HETATM    1  O   UNL     1      35.736 -14.364 -10.784  1.00  0.00    -0.776 OA
HETATM    2  H   UNL     1      36.006 -13.564 -10.311  1.00  0.00     0.167 HD
ENDROOT
BRANCH   1   3
HETATM    3  C   UNL     1      36.512 -15.468 -10.802  1.00  0.00     0.139 C 
HETATM    4  O   UNL     1      36.099 -16.492 -11.331  1.00  0.00    -0.650 OA
BRANCH   3   5
HETATM    5  C   UNL     1      37.876 -15.413 -10.168  1.00  0.00     0.110 C 
BRANCH   5   6
HETATM    6  C   UNL     1      37.836 -15.023  -8.684  1.00  0.00     0.010 C 
BRANCH   6   7
HETATM    7  C   UNL     1      36.613 -15.634  -7.988  1.00  0.00     0.001 C 
BRANCH   7   8
HETATM    8  C   UNL     1      35.940 -14.610  -7.067  1.00  0.00     0.000 C 
BRANCH   8   9
HETATM    9  C   UNL     1      34.433 -14.869  -6.962  1.00  0.00     0.000 C 
BRANCH   9  10
HETATM   10  C   UNL     1      33.994 -15.939  -7.967  1.00  0.00     0.004 C 
BRANCH  10  11
HETATM   11  C   UNL     1      32.910 -15.410  -8.908  1.00  0.00     0.027 C 
BRANCH  11  12
HETATM   12  C   UNL     1      32.149 -14.300  -8.224  1.00  0.00    -0.031 C 
HETATM   13  C   UNL     1      31.814 -13.106  -8.754  1.00  0.00    -0.031 C 
BRANCH  13  14
HETATM   14  C   UNL     1      32.131 -12.605 -10.147  1.00  0.00     0.027 C 
BRANCH  14  15
HETATM   15  C   UNL     1      30.900 -12.703 -11.066  1.00  0.00     0.004 C 
BRANCH  15  16
HETATM   16  C   UNL     1      31.207 -13.221 -12.487  1.00  0.00     0.000 C 
BRANCH  16  17
HETATM   17  C   UNL     1      32.446 -12.564 -13.117  1.00  0.00     0.000 C 
BRANCH  17  18
HETATM   18  C   UNL     1      32.839 -13.266 -14.423  1.00  0.00     0.000 C 
BRANCH  18  19
HETATM   19  C   UNL     1      31.601 -13.788 -15.162  1.00  0.00    -0.000 C 
BRANCH  19  20
HETATM   20  C   UNL     1      31.087 -12.757 -16.174  1.00  0.00    -0.005 C 
HETATM   21  C   UNL     1      31.411 -13.180 -17.603  1.00  0.00     0.005 C 
ENDBRANCH  19  20
ENDBRANCH  18  19
ENDBRANCH  17  18
ENDBRANCH  16  17
ENDBRANCH  15  16
ENDBRANCH  14  15
ENDBRANCH  13  14
ENDBRANCH  11  12
ENDBRANCH  10  11
ENDBRANCH   9  10
ENDBRANCH   8   9
ENDBRANCH   7   8
ENDBRANCH   6   7
ENDBRANCH   5   6
ENDBRANCH   3   5
ENDBRANCH   1   3
TORSDOF 16
ENDMDL
MODEL 13
REMARK VINA RESULT:      -4.6      3.837      7.114
REMARK  16 active torsions:
REMARK  status: ('A' for Active; 'I' for Inactive)
REMARK    1  A    between atoms: O_1  and  C_20 
REMARK    2  A    between atoms: C_3  and  C_4 
REMARK    3  A    between atoms: C_3  and  C_5 
REMARK    4  A    between atoms: C_4  and  C_8 
REMARK    5  A    between atoms: C_5  and  C_11 
REMARK    6  A    between atoms: C_6  and  C_7 
REMARK    7  A    between atoms: C_6  and  C_9 
REMARK    8  A    between atoms: C_7  and  C_10 
REMARK    9  A    between atoms: C_8  and  C_12 
REMARK   10  A    between atoms: C_9  and  C_13 
REMARK   11  A    between atoms: C_10  and  C_14 
REMARK   12  A    between atoms: C_11  and  C_15 
REMARK   13  A    between atoms: C_12  and  C_16 
REMARK   14  A    between atoms: C_13  and  C_17 
REMARK   15  A    between atoms: C_14  and  C_18 
REMARK   16  A    between atoms: C_18  and  C_20 
ROOT
HETATM    1  O   UNL     1      30.207 -12.698 -10.980  1.00  0.00    -0.776 OA
HETATM    2  H   UNL     1      29.624 -13.257 -10.446  1.00  0.00     0.167 HD
ENDROOT
BRANCH   1   3
HETATM    3  C   UNL     1      31.494 -13.034 -11.204  1.00  0.00     0.139 C 
HETATM    4  O   UNL     1      32.075 -13.773 -10.420  1.00  0.00    -0.650 OA
BRANCH   3   5
HETATM    5  C   UNL     1      32.191 -12.488 -12.423  1.00  0.00     0.110 C 
BRANCH   5   6
HETATM    6  C   UNL     1      31.833 -13.244 -13.711  1.00  0.00     0.010 C 
BRANCH   6   7
HETATM    7  C   UNL     1      32.780 -12.860 -14.854  1.00  0.00     0.001 C 
BRANCH   7   8
HETATM    8  C   UNL     1      32.000 -12.288 -16.043  1.00  0.00     0.000 C 
BRANCH   8   9
HETATM    9  C   UNL     1      30.857 -13.223 -16.453  1.00  0.00     0.000 C 
BRANCH   9  10
HETATM   10  C   UNL     1      31.402 -14.583 -16.903  1.00  0.00     0.004 C 
BRANCH  10  11
HETATM   11  C   UNL     1      31.625 -14.622 -18.417  1.00  0.00     0.027 C 
BRANCH  11  12
HETATM   12  C   UNL     1      32.810 -13.756 -18.772  1.00  0.00    -0.031 C 
HETATM   13  C   UNL     1      34.092 -14.155 -18.896  1.00  0.00    -0.031 C 
BRANCH  13  14
HETATM   14  C   UNL     1      34.635 -15.555 -18.700  1.00  0.00     0.027 C 
BRANCH  14  15
HETATM   15  C   UNL     1      34.825 -15.874 -17.207  1.00  0.00     0.004 C 
BRANCH  15  16
HETATM   16  C   UNL     1      35.527 -14.761 -16.402  1.00  0.00     0.000 C 
BRANCH  16  17
HETATM   17  C   UNL     1      37.059 -14.891 -16.396  1.00  0.00     0.000 C 
BRANCH  17  18
HETATM   18  C   UNL     1      37.570 -15.352 -15.024  1.00  0.00     0.000 C 
BRANCH  18  19
HETATM   19  C   UNL     1      36.506 -15.135 -13.941  1.00  0.00    -0.000 C 
BRANCH  19  20
HETATM   20  C   UNL     1      37.069 -15.437 -12.547  1.00  0.00    -0.005 C 
HETATM   21  C   UNL     1      35.977 -15.360 -11.485  1.00  0.00     0.005 C 
ENDBRANCH  19  20
ENDBRANCH  18  19
ENDBRANCH  17  18
ENDBRANCH  16  17
ENDBRANCH  15  16
ENDBRANCH  14  15
ENDBRANCH  13  14
ENDBRANCH  11  12
ENDBRANCH  10  11
ENDBRANCH   9  10
ENDBRANCH   8   9
ENDBRANCH   7   8
ENDBRANCH   6   7
ENDBRANCH   5   6
ENDBRANCH   3   5
ENDBRANCH   1   3
TORSDOF 16
ENDMDL
MODEL 14
REMARK VINA RESULT:      -4.6      4.160      8.642
REMARK  16 active torsions:
REMARK  status: ('A' for Active; 'I' for Inactive)
REMARK    1  A    between atoms: O_1  and  C_20 
REMARK    2  A    between atoms: C_3  and  C_4 
REMARK    3  A    between atoms: C_3  and  C_5 
REMARK    4  A    between atoms: C_4  and  C_8 
REMARK    5  A    between atoms: C_5  and  C_11 
REMARK    6  A    between atoms: C_6  and  C_7 
REMARK    7  A    between atoms: C_6  and  C_9 
REMARK    8  A    between atoms: C_7  and  C_10 
REMARK    9  A    between atoms: C_8  and  C_12 
REMARK   10  A    between atoms: C_9  and  C_13 
REMARK   11  A    between atoms: C_10  and  C_14 
REMARK   12  A    between atoms: C_11  and  C_15 
REMARK   13  A    between atoms: C_12  and  C_16 
REMARK   14  A    between atoms: C_13  and  C_17 
REMARK   15  A    between atoms: C_14  and  C_18 
REMARK   16  A    between atoms: C_18  and  C_20 
ROOT
HETATM    1  O   UNL     1      36.184 -13.955 -16.779  1.00  0.00    -0.776 OA
HETATM    2  H   UNL     1      36.595 -13.318 -16.177  1.00  0.00     0.167 HD
ENDROOT
BRANCH   1   3
HETATM    3  C   UNL     1      36.396 -15.282 -16.654  1.00  0.00     0.139 C 
HETATM    4  O   UNL     1      37.307 -15.687 -15.944  1.00  0.00    -0.650 OA
BRANCH   3   5
HETATM    5  C   UNL     1      35.499 -16.238 -17.395  1.00  0.00     0.110 C 
BRANCH   5   6
HETATM    6  C   UNL     1      34.400 -15.533 -18.202  1.00  0.00     0.010 C 
BRANCH   6   7
HETATM    7  C   UNL     1      33.035 -15.685 -17.520  1.00  0.00     0.001 C 
BRANCH   7   8
HETATM    8  C   UNL     1      32.118 -14.506 -17.863  1.00  0.00     0.000 C 
BRANCH   8   9
HETATM    9  C   UNL     1      32.144 -13.446 -16.755  1.00  0.00     0.000 C 
BRANCH   9  10
HETATM   10  C   UNL     1      31.023 -13.693 -15.741  1.00  0.00     0.004 C 
BRANCH  10  11
HETATM   11  C   UNL     1      31.560 -13.713 -14.308  1.00  0.00     0.027 C 
BRANCH  11  12
HETATM   12  C   UNL     1      31.719 -15.143 -13.851  1.00  0.00    -0.031 C 
HETATM   13  C   UNL     1      32.790 -15.677 -13.230  1.00  0.00    -0.031 C 
BRANCH  13  14
HETATM   14  C   UNL     1      34.076 -14.969 -12.858  1.00  0.00     0.027 C 
BRANCH  14  15
HETATM   15  C   UNL     1      35.267 -15.944 -12.855  1.00  0.00     0.004 C 
BRANCH  15  16
HETATM   16  C   UNL     1      36.600 -15.319 -12.394  1.00  0.00     0.000 C 
BRANCH  16  17
HETATM   17  C   UNL     1      37.327 -16.158 -11.331  1.00  0.00     0.000 C 
BRANCH  17  18
HETATM   18  C   UNL     1      37.583 -15.339 -10.059  1.00  0.00     0.000 C 
BRANCH  18  19
HETATM   19  C   UNL     1      36.266 -14.829  -9.461  1.00  0.00    -0.000 C 
BRANCH  19  20
HETATM   20  C   UNL     1      35.356 -15.994  -9.056  1.00  0.00    -0.005 C 
HETATM   21  C   UNL     1      34.016 -15.489  -8.529  1.00  0.00     0.005 C 
ENDBRANCH  19  20
ENDBRANCH  18  19
ENDBRANCH  17  18
ENDBRANCH  16  17
ENDBRANCH  15  16
ENDBRANCH  14  15
ENDBRANCH  13  14
ENDBRANCH  11  12
ENDBRANCH  10  11
ENDBRANCH   9  10
ENDBRANCH   8   9
ENDBRANCH   7   8
ENDBRANCH   6   7
ENDBRANCH   5   6
ENDBRANCH   3   5
ENDBRANCH   1   3
TORSDOF 16
ENDMDL
MODEL 15
REMARK VINA RESULT:      -4.6      3.780      6.010
REMARK  16 active torsions:
REMARK  status: ('A' for Active; 'I' for Inactive)
REMARK    1  A    between atoms: O_1  and  C_20 
REMARK    2  A    between atoms: C_3  and  C_4 
REMARK    3  A    between atoms: C_3  and  C_5 
REMARK    4  A    between atoms: C_4  and  C_8 
REMARK    5  A    between atoms: C_5  and  C_11 
REMARK    6  A    between atoms: C_6  and  C_7 
REMARK    7  A    between atoms: C_6  and  C_9 
REMARK    8  A    between atoms: C_7  and  C_10 
REMARK    9  A    between atoms: C_8  and  C_12 
REMARK   10  A    between atoms: C_9  and  C_13 
REMARK   11  A    between atoms: C_10  and  C_14 
REMARK   12  A    between atoms: C_11  and  C_15 
REMARK   13  A    between atoms: C_12  and  C_16 
REMARK   14  A    between atoms: C_13  and  C_17 
REMARK   15  A    between atoms: C_14  and  C_18 
REMARK   16  A    between atoms: C_18  and  C_20 
ROOT
HETATM    1  O   UNL     1      34.917 -14.251  -9.858  1.00  0.00    -0.776 OA
HETATM    2  H   UNL     1      34.655 -14.048 -10.767  1.00  0.00     0.167 HD
ENDROOT
BRANCH   1   3
HETATM    3  C   UNL     1      35.938 -15.092  -9.590  1.00  0.00     0.139 C 
HETATM    4  O   UNL     1      35.898 -15.798  -8.591  1.00  0.00    -0.650 OA
BRANCH   3   5
HETATM    5  C   UNL     1      37.111 -15.143 -10.533  1.00  0.00     0.110 C 
BRANCH   5   6
HETATM    6  C   UNL     1      36.801 -15.883 -11.842  1.00  0.00     0.010 C 
BRANCH   6   7
HETATM    7  C   UNL     1      36.095 -14.958 -12.842  1.00  0.00     0.001 C 
BRANCH   7   8
HETATM    8  C   UNL     1      36.207 -15.508 -14.268  1.00  0.00     0.000 C 
BRANCH   8   9
HETATM    9  C   UNL     1      37.597 -15.239 -14.856  1.00  0.00     0.000 C 
BRANCH   9  10
HETATM   10  C   UNL     1      37.522 -15.079 -16.378  1.00  0.00     0.004 C 
BRANCH  10  11
HETATM   11  C   UNL     1      36.141 -14.589 -16.820  1.00  0.00     0.027 C 
BRANCH  11  12
HETATM   12  C   UNL     1      35.890 -15.018 -18.246  1.00  0.00    -0.031 C 
HETATM   13  C   UNL     1      34.710 -15.396 -18.778  1.00  0.00    -0.031 C 
BRANCH  13  14
HETATM   14  C   UNL     1      33.376 -15.486 -18.069  1.00  0.00     0.027 C 
BRANCH  14  15
HETATM   15  C   UNL     1      32.573 -14.182 -18.226  1.00  0.00     0.004 C 
BRANCH  15  16
HETATM   16  C   UNL     1      32.570 -13.283 -16.973  1.00  0.00     0.000 C 
BRANCH  16  17
HETATM   17  C   UNL     1      31.202 -13.223 -16.273  1.00  0.00     0.000 C 
BRANCH  17  18
HETATM   18  C   UNL     1      31.348 -12.778 -14.812  1.00  0.00     0.000 C 
BRANCH  18  19
HETATM   19  C   UNL     1      32.353 -13.664 -14.065  1.00  0.00    -0.000 C 
BRANCH  19  20
HETATM   20  C   UNL     1      31.692 -14.957 -13.575  1.00  0.00    -0.005 C 
HETATM   21  C   UNL     1      32.701 -15.859 -12.872  1.00  0.00     0.005 C 
ENDBRANCH  19  20
ENDBRANCH  18  19
ENDBRANCH  17  18
ENDBRANCH  16  17
ENDBRANCH  15  16
ENDBRANCH  14  15
ENDBRANCH  13  14
ENDBRANCH  11  12
ENDBRANCH  10  11
ENDBRANCH   9  10
ENDBRANCH   8   9
ENDBRANCH   7   8
ENDBRANCH   6   7
ENDBRANCH   5   6
ENDBRANCH   3   5
ENDBRANCH   1   3
TORSDOF 16
ENDMDL
MODEL 16
REMARK VINA RESULT:      -4.6      1.985      5.316
REMARK  16 active torsions:
REMARK  status: ('A' for Active; 'I' for Inactive)
REMARK    1  A    between atoms: O_1  and  C_20 
REMARK    2  A    between atoms: C_3  and  C_4 
REMARK    3  A    between atoms: C_3  and  C_5 
REMARK    4  A    between atoms: C_4  and  C_8 
REMARK    5  A    between atoms: C_5  and  C_11 
REMARK    6  A    between atoms: C_6  and  C_7 
REMARK    7  A    between atoms: C_6  and  C_9 
REMARK    8  A    between atoms: C_7  and  C_10 
REMARK    9  A    between atoms: C_8  and  C_12 
REMARK   10  A    between atoms: C_9  and  C_13 
REMARK   11  A    between atoms: C_10  and  C_14 
REMARK   12  A    between atoms: C_11  and  C_15 
REMARK   13  A    between atoms: C_12  and  C_16 
REMARK   14  A    between atoms: C_13  and  C_17 
REMARK   15  A    between atoms: C_14  and  C_18 
REMARK   16  A    between atoms: C_18  and  C_20 
ROOT
HETATM    1  O   UNL     1      31.509 -13.886 -14.094  1.00  0.00    -0.776 OA
HETATM    2  H   UNL     1      30.794 -14.252 -14.635  1.00  0.00     0.167 HD
ENDROOT
BRANCH   1   3
HETATM    3  C   UNL     1      32.502 -13.153 -14.641  1.00  0.00     0.139 C 
HETATM    4  O   UNL     1      33.501 -12.896 -13.982  1.00  0.00    -0.650 OA
BRANCH   3   5
HETATM    5  C   UNL     1      32.356 -12.667 -16.059  1.00  0.00     0.110 C 
BRANCH   5   6
HETATM    6  C   UNL     1      31.089 -13.191 -16.749  1.00  0.00     0.010 C 
BRANCH   6   7
HETATM    7  C   UNL     1      31.432 -13.883 -18.074  1.00  0.00     0.001 C 
BRANCH   7   8
HETATM    8  C   UNL     1      32.741 -14.670 -17.958  1.00  0.00     0.000 C 
BRANCH   8   9
HETATM    9  C   UNL     1      33.184 -15.208 -19.324  1.00  0.00     0.000 C 
BRANCH   9  10
HETATM   10  C   UNL     1      32.307 -14.638 -20.443  1.00  0.00     0.004 C 
BRANCH  10  11
HETATM   11  C   UNL     1      33.139 -14.271 -21.674  1.00  0.00     0.027 C 
BRANCH  11  12
HETATM   12  C   UNL     1      33.789 -15.516 -22.229  1.00  0.00    -0.031 C 
HETATM   13  C   UNL     1      35.107 -15.801 -22.241  1.00  0.00    -0.031 C 
BRANCH  13  14
HETATM   14  C   UNL     1      36.232 -14.938 -21.710  1.00  0.00     0.027 C 
BRANCH  14  15
HETATM   15  C   UNL     1      37.359 -15.798 -21.113  1.00  0.00     0.004 C 
BRANCH  15  16
HETATM   16  C   UNL     1      37.758 -15.415 -19.673  1.00  0.00     0.000 C 
BRANCH  16  17
HETATM   17  C   UNL     1      36.551 -15.108 -18.771  1.00  0.00     0.000 C 
BRANCH  17  18
HETATM   18  C   UNL     1      36.709 -15.764 -17.394  1.00  0.00     0.000 C 
BRANCH  18  19
HETATM   19  C   UNL     1      36.714 -14.711 -16.280  1.00  0.00    -0.000 C 
BRANCH  19  20
HETATM   20  C   UNL     1      37.922 -14.893 -15.354  1.00  0.00    -0.005 C 
HETATM   21  C   UNL     1      37.488 -15.354 -13.966  1.00  0.00     0.005 C 
ENDBRANCH  19  20
ENDBRANCH  18  19
ENDBRANCH  17  18
ENDBRANCH  16  17
ENDBRANCH  15  16
ENDBRANCH  14  15
ENDBRANCH  13  14
ENDBRANCH  11  12
ENDBRANCH  10  11
ENDBRANCH   9  10
ENDBRANCH   8   9
ENDBRANCH   7   8
ENDBRANCH   6   7
ENDBRANCH   5   6
ENDBRANCH   3   5
ENDBRANCH   1   3
TORSDOF 16
ENDMDL
MODEL 17
REMARK VINA RESULT:      -4.6      3.170      6.275
REMARK  16 active torsions:
REMARK  status: ('A' for Active; 'I' for Inactive)
REMARK    1  A    between atoms: O_1  and  C_20 
REMARK    2  A    between atoms: C_3  and  C_4 
REMARK    3  A    between atoms: C_3  and  C_5 
REMARK    4  A    between atoms: C_4  and  C_8 
REMARK    5  A    between atoms: C_5  and  C_11 
REMARK    6  A    between atoms: C_6  and  C_7 
REMARK    7  A    between atoms: C_6  and  C_9 
REMARK    8  A    between atoms: C_7  and  C_10 
REMARK    9  A    between atoms: C_8  and  C_12 
REMARK   10  A    between atoms: C_9  and  C_13 
REMARK   11  A    between atoms: C_10  and  C_14 
REMARK   12  A    between atoms: C_11  and  C_15 
REMARK   13  A    between atoms: C_12  and  C_16 
REMARK   14  A    between atoms: C_13  and  C_17 
REMARK   15  A    between atoms: C_14  and  C_18 
REMARK   16  A    between atoms: C_18  and  C_20 
ROOT
HETATM    1  O   UNL     1      31.031 -14.889 -11.106  1.00  0.00    -0.776 OA
HETATM    2  H   UNL     1      31.279 -14.405 -10.306  1.00  0.00     0.167 HD
ENDROOT
BRANCH   1   3
HETATM    3  C   UNL     1      31.307 -14.408 -12.336  1.00  0.00     0.139 C 
HETATM    4  O   UNL     1      31.308 -13.199 -12.529  1.00  0.00    -0.650 OA
BRANCH   3   5
HETATM    5  C   UNL     1      31.610 -15.376 -13.450  1.00  0.00     0.110 C 
BRANCH   5   6
HETATM    6  C   UNL     1      32.049 -14.684 -14.748  1.00  0.00     0.010 C 
BRANCH   6   7
HETATM    7  C   UNL     1      30.874 -14.555 -15.726  1.00  0.00     0.001 C 
BRANCH   7   8
HETATM    8  C   UNL     1      31.032 -13.312 -16.609  1.00  0.00     0.000 C 
BRANCH   8   9
HETATM    9  C   UNL     1      32.163 -12.412 -16.097  1.00  0.00     0.000 C 
BRANCH   9  10
HETATM   10  C   UNL     1      33.121 -12.043 -17.234  1.00  0.00     0.004 C 
BRANCH  10  11
HETATM   11  C   UNL     1      33.775 -13.288 -17.839  1.00  0.00     0.027 C 
BRANCH  11  12
HETATM   12  C   UNL     1      34.776 -13.854 -16.860  1.00  0.00    -0.031 C 
HETATM   13  C   UNL     1      35.718 -14.785 -17.117  1.00  0.00    -0.031 C 
BRANCH  13  14
HETATM   14  C   UNL     1      35.980 -15.477 -18.438  1.00  0.00     0.027 C 
BRANCH  14  15
HETATM   15  C   UNL     1      37.404 -15.189 -18.945  1.00  0.00     0.004 C 
BRANCH  15  16
HETATM   16  C   UNL     1      37.559 -15.252 -20.478  1.00  0.00     0.000 C 
BRANCH  16  17
HETATM   17  C   UNL     1      36.590 -16.243 -21.145  1.00  0.00     0.000 C 
BRANCH  17  18
HETATM   18  C   UNL     1      35.907 -15.612 -22.365  1.00  0.00     0.000 C 
BRANCH  18  19
HETATM   19  C   UNL     1      34.389 -15.532 -22.164  1.00  0.00    -0.000 C 
BRANCH  19  20
HETATM   20  C   UNL     1      33.923 -14.076 -22.047  1.00  0.00    -0.005 C 
HETATM   21  C   UNL     1      33.507 -13.520 -23.405  1.00  0.00     0.005 C 
ENDBRANCH  19  20
ENDBRANCH  18  19
ENDBRANCH  17  18
ENDBRANCH  16  17
ENDBRANCH  15  16
ENDBRANCH  14  15
ENDBRANCH  13  14
ENDBRANCH  11  12
ENDBRANCH  10  11
ENDBRANCH   9  10
ENDBRANCH   8   9
ENDBRANCH   7   8
ENDBRANCH   6   7
ENDBRANCH   5   6
ENDBRANCH   3   5
ENDBRANCH   1   3
TORSDOF 16
ENDMDL
MODEL 18
REMARK VINA RESULT:      -4.5      4.038      7.707
REMARK  16 active torsions:
REMARK  status: ('A' for Active; 'I' for Inactive)
REMARK    1  A    between atoms: O_1  and  C_20 
REMARK    2  A    between atoms: C_3  and  C_4 
REMARK    3  A    between atoms: C_3  and  C_5 
REMARK    4  A    between atoms: C_4  and  C_8 
REMARK    5  A    between atoms: C_5  and  C_11 
REMARK    6  A    between atoms: C_6  and  C_7 
REMARK    7  A    between atoms: C_6  and  C_9 
REMARK    8  A    between atoms: C_7  and  C_10 
REMARK    9  A    between atoms: C_8  and  C_12 
REMARK   10  A    between atoms: C_9  and  C_13 
REMARK   11  A    between atoms: C_10  and  C_14 
REMARK   12  A    between atoms: C_11  and  C_15 
REMARK   13  A    between atoms: C_12  and  C_16 
REMARK   14  A    between atoms: C_13  and  C_17 
REMARK   15  A    between atoms: C_14  and  C_18 
REMARK   16  A    between atoms: C_18  and  C_20 
ROOT
HETATM    1  O   UNL     1      33.407 -12.150 -23.666  1.00  0.00    -0.776 OA
HETATM    2  H   UNL     1      34.095 -12.794 -23.888  1.00  0.00     0.167 HD
ENDROOT
BRANCH   1   3
HETATM    3  C   UNL     1      32.960 -12.004 -22.401  1.00  0.00     0.139 C 
HETATM    4  O   UNL     1      33.472 -11.167 -21.669  1.00  0.00    -0.650 OA
BRANCH   3   5
HETATM    5  C   UNL     1      31.834 -12.879 -21.917  1.00  0.00     0.110 C 
BRANCH   5   6
HETATM    6  C   UNL     1      31.381 -12.544 -20.489  1.00  0.00     0.010 C 
BRANCH   6   7
HETATM    7  C   UNL     1      32.257 -13.259 -19.452  1.00  0.00     0.001 C 
BRANCH   7   8
HETATM    8  C   UNL     1      32.452 -12.388 -18.207  1.00  0.00     0.000 C 
BRANCH   8   9
HETATM    9  C   UNL     1      33.249 -13.135 -17.130  1.00  0.00     0.000 C 
BRANCH   9  10
HETATM   10  C   UNL     1      32.878 -14.621 -17.114  1.00  0.00     0.004 C 
BRANCH  10  11
HETATM   11  C   UNL     1      34.120 -15.508 -17.238  1.00  0.00     0.027 C 
BRANCH  11  12
HETATM   12  C   UNL     1      35.358 -14.644 -17.214  1.00  0.00    -0.031 C 
HETATM   13  C   UNL     1      36.421 -14.780 -16.396  1.00  0.00    -0.031 C 
BRANCH  13  14
HETATM   14  C   UNL     1      36.611 -15.822 -15.313  1.00  0.00     0.027 C 
BRANCH  14  15
HETATM   15  C   UNL     1      36.351 -15.228 -13.918  1.00  0.00     0.004 C 
BRANCH  15  16
HETATM   16  C   UNL     1      35.227 -15.928 -13.128  1.00  0.00     0.000 C 
BRANCH  16  17
HETATM   17  C   UNL     1      34.007 -15.025 -12.879  1.00  0.00     0.000 C 
BRANCH  17  18
HETATM   18  C   UNL     1      32.798 -15.490 -13.702  1.00  0.00     0.000 C 
BRANCH  18  19
HETATM   19  C   UNL     1      31.488 -14.986 -13.086  1.00  0.00    -0.000 C 
BRANCH  19  20
HETATM   20  C   UNL     1      31.477 -13.456 -12.986  1.00  0.00    -0.005 C 
HETATM   21  C   UNL     1      31.201 -12.998 -11.558  1.00  0.00     0.005 C 
ENDBRANCH  19  20
ENDBRANCH  18  19
ENDBRANCH  17  18
ENDBRANCH  16  17
ENDBRANCH  15  16
ENDBRANCH  14  15
ENDBRANCH  13  14
ENDBRANCH  11  12
ENDBRANCH  10  11
ENDBRANCH   9  10
ENDBRANCH   8   9
ENDBRANCH   7   8
ENDBRANCH   6   7
ENDBRANCH   5   6
ENDBRANCH   3   5
ENDBRANCH   1   3
TORSDOF 16
ENDMDL
MODEL 19
REMARK VINA RESULT:      -4.5      7.423     11.200
REMARK  16 active torsions:
REMARK  status: ('A' for Active; 'I' for Inactive)
REMARK    1  A    between atoms: O_1  and  C_20 
REMARK    2  A    between atoms: C_3  and  C_4 
REMARK    3  A    between atoms: C_3  and  C_5 
REMARK    4  A    between atoms: C_4  and  C_8 
REMARK    5  A    between atoms: C_5  and  C_11 
REMARK    6  A    between atoms: C_6  and  C_7 
REMARK    7  A    between atoms: C_6  and  C_9 
REMARK    8  A    between atoms: C_7  and  C_10 
REMARK    9  A    between atoms: C_8  and  C_12 
REMARK   10  A    between atoms: C_9  and  C_13 
REMARK   11  A    between atoms: C_10  and  C_14 
REMARK   12  A    between atoms: C_11  and  C_15 
REMARK   13  A    between atoms: C_12  and  C_16 
REMARK   14  A    between atoms: C_13  and  C_17 
REMARK   15  A    between atoms: C_14  and  C_18 
REMARK   16  A    between atoms: C_18  and  C_20 
ROOT
HETATM    1  O   UNL     1      37.865 -14.051 -11.388  1.00  0.00    -0.776 OA
HETATM    2  H   UNL     1      38.473 -13.370 -11.067  1.00  0.00     0.167 HD
ENDROOT
BRANCH   1   3
HETATM    3  C   UNL     1      37.556 -15.130 -10.638  1.00  0.00     0.139 C 
HETATM    4  O   UNL     1      37.852 -15.149  -9.451  1.00  0.00    -0.650 OA
BRANCH   3   5
HETATM    5  C   UNL     1      36.849 -16.292 -11.285  1.00  0.00     0.110 C 
BRANCH   5   6
HETATM    6  C   UNL     1      35.465 -15.925 -11.836  1.00  0.00     0.010 C 
BRANCH   6   7
HETATM    7  C   UNL     1      35.531 -15.635 -13.341  1.00  0.00     0.001 C 
BRANCH   7   8
HETATM    8  C   UNL     1      34.132 -15.377 -13.911  1.00  0.00     0.000 C 
BRANCH   8   9
HETATM    9  C   UNL     1      33.045 -15.847 -12.937  1.00  0.00     0.000 C 
BRANCH   9  10
HETATM   10  C   UNL     1      31.685 -15.250 -13.313  1.00  0.00     0.004 C 
BRANCH  10  11
HETATM   11  C   UNL     1      30.911 -14.797 -12.072  1.00  0.00     0.027 C 
BRANCH  11  12
HETATM   12  C   UNL     1      31.331 -13.394 -11.704  1.00  0.00    -0.031 C 
HETATM   13  C   UNL     1      31.665 -12.949 -10.476  1.00  0.00    -0.031 C 
BRANCH  13  14
HETATM   14  C   UNL     1      31.688 -13.749  -9.190  1.00  0.00     0.027 C 
BRANCH  14  15
HETATM   15  C   UNL     1      32.805 -14.806  -9.212  1.00  0.00     0.004 C 
BRANCH  15  16
HETATM   16  C   UNL     1      34.177 -14.293  -8.730  1.00  0.00     0.000 C 
BRANCH  16  17
HETATM   17  C   UNL     1      34.680 -15.003  -7.463  1.00  0.00     0.000 C 
BRANCH  17  18
HETATM   18  C   UNL     1      33.583 -15.066  -6.392  1.00  0.00     0.000 C 
BRANCH  18  19
HETATM   19  C   UNL     1      33.416 -13.710  -5.696  1.00  0.00    -0.000 C 
BRANCH  19  20
HETATM   20  C   UNL     1      32.004 -13.557  -5.116  1.00  0.00    -0.005 C 
HETATM   21  C   UNL     1      31.498 -14.877  -4.544  1.00  0.00     0.005 C 
ENDBRANCH  19  20
ENDBRANCH  18  19
ENDBRANCH  17  18
ENDBRANCH  16  17
ENDBRANCH  15  16
ENDBRANCH  14  15
ENDBRANCH  13  14
ENDBRANCH  11  12
ENDBRANCH  10  11
ENDBRANCH   9  10
ENDBRANCH   8   9
ENDBRANCH   7   8
ENDBRANCH   6   7
ENDBRANCH   5   6
ENDBRANCH   3   5
ENDBRANCH   1   3
TORSDOF 16
ENDMDL
MODEL 20
REMARK VINA RESULT:      -4.4     14.409     17.188
REMARK  16 active torsions:
REMARK  status: ('A' for Active; 'I' for Inactive)
REMARK    1  A    between atoms: O_1  and  C_20 
REMARK    2  A    between atoms: C_3  and  C_4 
REMARK    3  A    between atoms: C_3  and  C_5 
REMARK    4  A    between atoms: C_4  and  C_8 
REMARK    5  A    between atoms: C_5  and  C_11 
REMARK    6  A    between atoms: C_6  and  C_7 
REMARK    7  A    between atoms: C_6  and  C_9 
REMARK    8  A    between atoms: C_7  and  C_10 
REMARK    9  A    between atoms: C_8  and  C_12 
REMARK   10  A    between atoms: C_9  and  C_13 
REMARK   11  A    between atoms: C_10  and  C_14 
REMARK   12  A    between atoms: C_11  and  C_15 
REMARK   13  A    between atoms: C_12  and  C_16 
REMARK   14  A    between atoms: C_13  and  C_17 
REMARK   15  A    between atoms: C_14  and  C_18 
REMARK   16  A    between atoms: C_18  and  C_20 
ROOT
HETATM    1  O   UNL     1      46.922  -6.758 -15.253  1.00  0.00    -0.776 OA
HETATM    2  H   UNL     1      47.729  -7.140 -15.628  1.00  0.00     0.167 HD
ENDROOT
BRANCH   1   3
HETATM    3  C   UNL     1      46.024  -7.516 -14.591  1.00  0.00     0.139 C 
HETATM    4  O   UNL     1      45.100  -6.981 -13.993  1.00  0.00    -0.650 OA
BRANCH   3   5
HETATM    5  C   UNL     1      46.181  -9.014 -14.603  1.00  0.00     0.110 C 
BRANCH   5   6
HETATM    6  C   UNL     1      47.364  -9.489 -15.458  1.00  0.00     0.010 C 
BRANCH   6   7
HETATM    7  C   UNL     1      48.480 -10.069 -14.579  1.00  0.00     0.001 C 
BRANCH   7   8
HETATM    8  C   UNL     1      48.020 -11.360 -13.892  1.00  0.00     0.000 C 
BRANCH   8   9
HETATM    9  C   UNL     1      48.400 -11.360 -12.407  1.00  0.00     0.000 C 
BRANCH   9  10
HETATM   10  C   UNL     1      49.227 -10.118 -12.058  1.00  0.00     0.004 C 
BRANCH  10  11
HETATM   11  C   UNL     1      48.500  -9.230 -11.045  1.00  0.00     0.027 C 
BRANCH  11  12
HETATM   12  C   UNL     1      47.020  -9.523 -11.091  1.00  0.00    -0.031 C 
HETATM   13  C   UNL     1      46.018  -8.661 -10.825  1.00  0.00    -0.031 C 
BRANCH  13  14
HETATM   14  C   UNL     1      46.149  -7.210 -10.412  1.00  0.00     0.027 C 
BRANCH  14  15
HETATM   15  C   UNL     1      45.400  -6.937  -9.095  1.00  0.00     0.004 C 
BRANCH  15  16
HETATM   16  C   UNL     1      46.206  -6.122  -8.063  1.00  0.00     0.000 C 
BRANCH  16  17
HETATM   17  C   UNL     1      46.484  -6.896  -6.763  1.00  0.00     0.000 C 
BRANCH  17  18
HETATM   18  C   UNL     1      47.289  -8.172  -7.041  1.00  0.00     0.000 C 
BRANCH  18  19
HETATM   19  C   UNL     1      46.554  -9.411  -6.514  1.00  0.00    -0.000 C 
BRANCH  19  20
HETATM   20  C   UNL     1      46.320 -10.432  -7.634  1.00  0.00    -0.005 C 
HETATM   21  C   UNL     1      47.592 -11.215  -7.940  1.00  0.00     0.005 C 
ENDBRANCH  19  20
ENDBRANCH  18  19
ENDBRANCH  17  18
ENDBRANCH  16  17
ENDBRANCH  15  16
ENDBRANCH  14  15
ENDBRANCH  13  14
ENDBRANCH  11  12
ENDBRANCH  10  11
ENDBRANCH   9  10
ENDBRANCH   8   9
ENDBRANCH   7   8
ENDBRANCH   6   7
ENDBRANCH   5   6
ENDBRANCH   3   5
ENDBRANCH   1   3
TORSDOF 16
ENDMDL
