REMARK  5 active torsions:
REMARK  status: ('A' for Active; 'I' for Inactive)
REMARK    1  A    between atoms: S_3  and  O_4 
REMARK    2  A    between atoms: S_3  and  C_15 
REMARK    3  A    between atoms: N_9  and  C_30 
REMARK    4  A    between atoms: C_11  and  C_13 
REMARK    5  A    between atoms: C_18  and  C_25 
ROOT
HETATM    1  S   UNL     1      -3.722  -0.602   0.722  1.00  0.00    -0.068 SA
HETATM    2  N   UNL     1      -3.110   1.518  -0.504  1.00  0.00    -0.344 N 
HETATM    3  C   UNL     1      -4.467   1.344  -0.633  1.00  0.00     0.053 A 
HETATM    4  C   UNL     1      -2.534   0.492   0.208  1.00  0.00     0.087 A 
HETATM    5  C   UNL     1      -4.984   0.214  -0.012  1.00  0.00     0.057 A 
HETATM    6  C   UNL     1      -6.348  -0.112  -0.037  1.00  0.00     0.097 A 
HETATM    7  C   UNL     1      -7.223   0.763  -0.731  1.00  0.00    -0.037 A 
HETATM    8  C   UNL     1      -5.336   2.211  -1.312  1.00  0.00     0.031 A 
HETATM    9  C   UNL     1      -2.441   2.715  -1.033  1.00  0.00     0.157 C 
HETATM   10  C   UNL     1      -6.703   1.916  -1.360  1.00  0.00     0.011 A 
HETATM   11  C   UNL     1      -8.702   0.493  -0.814  1.00  0.00     0.050 C 
ENDROOT
BRANCH   4  12
HETATM   12  C   UNL     1      -1.085   0.261   0.506  1.00  0.00    -0.001 A 
HETATM   13  C   UNL     1      -0.048   0.699  -0.350  1.00  0.00     0.035 A 
HETATM   14  C   UNL     1       1.272   0.419  -0.010  1.00  0.00     0.034 A 
HETATM   15  S   UNL     1       2.656   0.835  -0.843  1.00  0.00    -0.069 SA
HETATM   16  C   UNL     1       1.622  -0.281   1.129  1.00  0.00     0.052 A 
HETATM   17  C   UNL     1       3.694   0.085   0.273  1.00  0.00     0.087 A 
HETATM   18  N   UNL     1       2.971  -0.459   1.311  1.00  0.00    -0.344 N 
HETATM   19  C   UNL     1       3.498  -1.107   2.520  1.00  0.00     0.157 C 
HETATM   20  C   UNL     1       0.611  -0.736   1.987  1.00  0.00     0.032 A 
HETATM   21  C   UNL     1      -0.731  -0.474   1.666  1.00  0.00     0.016 A 
BRANCH  17  22
HETATM   22  C   UNL     1       5.174   0.042   0.047  1.00  0.00    -0.002 A 
HETATM   23  C   UNL     1       5.989  -1.010   0.502  1.00  0.00     0.016 A 
HETATM   24  C   UNL     1       7.363  -1.021   0.248  1.00  0.00     0.030 A 
HETATM   25  C   UNL     1       7.981   0.017  -0.482  1.00  0.00     0.029 A 
HETATM   26  C   UNL     1       7.157   1.059  -0.956  1.00  0.00     0.030 A 
HETATM   27  C   UNL     1       5.783   1.065  -0.703  1.00  0.00     0.016 A 
BRANCH  25  28
HETATM   28  N   UNL     1       9.401   0.006  -0.745  1.00  0.00    -0.390 N 
HETATM   29  C   UNL     1      10.239  -1.081  -0.254  1.00  0.00     0.149 C 
HETATM   30  C   UNL     1      10.024   1.082  -1.505  1.00  0.00     0.149 C 
ENDBRANCH  25  28
ENDBRANCH  17  22
ENDBRANCH   4  12
BRANCH   6  31
HETATM   31  S   UNL     1      -6.951  -1.602   0.792  1.00  0.00     0.131 S 
HETATM   32  O   UNL     1      -8.083  -1.306   1.789  1.00  0.00    -0.598 OA
HETATM   33  O   UNL     1      -7.665  -2.541  -0.192  1.00  0.00    -0.598 OA
BRANCH  31  34
HETATM   34  O   UNL     1      -5.862  -2.627   1.639  1.00  0.00    -0.292 OA
HETATM   35  H   UNL     1      -5.742  -2.199   2.525  1.00  0.00     0.232 HD
ENDBRANCH  31  34
ENDBRANCH   6  31
TORSDOF 5
