REMARK  13 active torsions:
REMARK  status: ('A' for Active; 'I' for Inactive)
REMARK    1  A    between atoms: O_1  and  C_16 
REMARK    2  A    between atoms: C_3  and  C_4 
REMARK    3  A    between atoms: C_3  and  C_5 
REMARK    4  A    between atoms: C_4  and  C_6 
REMARK    5  A    between atoms: C_5  and  C_7 
REMARK    6  A    between atoms: C_6  and  C_8 
REMARK    7  A    between atoms: C_7  and  C_9 
REMARK    8  A    between atoms: C_8  and  C_10 
REMARK    9  A    between atoms: C_9  and  C_11 
REMARK   10  A    between atoms: C_10  and  C_12 
REMARK   11  A    between atoms: C_11  and  C_13 
REMARK   12  A    between atoms: C_12  and  C_14 
REMARK   13  A    between atoms: C_14  and  C_16 
ROOT
HETATM    1  O   UNL     1      -8.287   0.561   0.004  1.00  0.00    -0.776 OA
HETATM    2  H   UNL     1      -9.138   0.100   0.012  1.00  0.00     0.167 HD
ENDROOT
BRANCH   1   3
HETATM    3  C   UNL     1      -7.119  -0.114   0.013  1.00  0.00     0.139 C 
HETATM    4  O   UNL     1      -7.125  -1.337   0.032  1.00  0.00    -0.650 OA
BRANCH   3   5
HETATM    5  C   UNL     1      -5.827   0.661  -0.001  1.00  0.00     0.110 C 
BRANCH   5   6
HETATM    6  C   UNL     1      -4.583  -0.240   0.012  1.00  0.00     0.010 C 
BRANCH   6   7
HETATM    7  C   UNL     1      -3.298   0.596  -0.003  1.00  0.00     0.001 C 
BRANCH   7   8
HETATM    8  C   UNL     1      -2.056  -0.303   0.009  1.00  0.00     0.000 C 
BRANCH   8   9
HETATM    9  C   UNL     1      -0.771   0.533  -0.006  1.00  0.00     0.000 C 
BRANCH   9  10
HETATM   10  C   UNL     1       0.471  -0.366   0.006  1.00  0.00     0.000 C 
BRANCH  10  11
HETATM   11  C   UNL     1       1.756   0.470  -0.010  1.00  0.00     0.000 C 
BRANCH  11  12
HETATM   12  C   UNL     1       2.998  -0.429   0.002  1.00  0.00     0.000 C 
BRANCH  12  13
HETATM   13  C   UNL     1       4.283   0.407  -0.014  1.00  0.00     0.000 C 
BRANCH  13  14
HETATM   14  C   UNL     1       5.525  -0.492  -0.002  1.00  0.00     0.000 C 
BRANCH  14  15
HETATM   15  C   UNL     1       6.810   0.344  -0.018  1.00  0.00    -0.000 C 
BRANCH  15  16
HETATM   16  C   UNL     1       8.051  -0.556  -0.006  1.00  0.00    -0.005 C 
HETATM   17  C   UNL     1       9.333   0.273  -0.022  1.00  0.00     0.005 C 
ENDBRANCH  15  16
ENDBRANCH  14  15
ENDBRANCH  13  14
ENDBRANCH  12  13
ENDBRANCH  11  12
ENDBRANCH  10  11
ENDBRANCH   9  10
ENDBRANCH   8   9
ENDBRANCH   7   8
ENDBRANCH   6   7
ENDBRANCH   5   6
ENDBRANCH   3   5
ENDBRANCH   1   3
TORSDOF 13
