REMARK  14 active torsions:
REMARK  status: ('A' for Active; 'I' for Inactive)
REMARK    1  A    between atoms: O_1  and  C_11 
REMARK    2  A    between atoms: C_3  and  C_4 
REMARK    3  A    between atoms: C_3  and  C_5 
REMARK    4  A    between atoms: C_4  and  C_6 
REMARK    5  A    between atoms: C_5  and  C_7 
REMARK    6  A    between atoms: C_6  and  C_8 
REMARK    7  A    between atoms: C_7  and  C_9 
REMARK    8  A    between atoms: C_8  and  C_10 
REMARK    9  A    between atoms: C_9  and  C_11 
REMARK   10  A    between atoms: C_12  and  C_13 
REMARK   11  A    between atoms: C_13  and  C_14 
REMARK   12  A    between atoms: C_15  and  C_16 
REMARK   13  A    between atoms: C_16  and  C_17 
REMARK   14  A    between atoms: C_18  and  C_19 
ROOT
HETATM    1  O   UNL     1       4.440  -0.342  -0.866  1.00  0.00    -0.776 OA
HETATM    2  H   UNL     1       4.620  -1.148  -0.362  1.00  0.00     0.167 HD
ENDROOT
BRANCH   1   3
HETATM    3  C   UNL     1       4.615   0.881  -0.323  1.00  0.00     0.139 C 
HETATM    4  O   UNL     1       5.015   0.990   0.827  1.00  0.00    -0.650 OA
BRANCH   3   5
HETATM    5  C   UNL     1       4.324   2.110  -1.140  1.00  0.00     0.110 C 
BRANCH   5   6
HETATM    6  C   UNL     1       3.229   2.983  -0.510  1.00  0.00     0.010 C 
BRANCH   6   7
HETATM    7  C   UNL     1       1.880   2.253  -0.422  1.00  0.00     0.001 C 
BRANCH   7   8
HETATM    8  C   UNL     1       0.800   3.158   0.183  1.00  0.00     0.000 C 
BRANCH   8   9
HETATM    9  C   UNL     1      -0.540   2.420   0.270  1.00  0.00     0.000 C 
BRANCH   9  10
HETATM   10  C   UNL     1      -1.631   3.312   0.883  1.00  0.00     0.004 C 
BRANCH  10  11
HETATM   11  C   UNL     1      -2.966   2.569   1.016  1.00  0.00     0.027 C 
BRANCH  11  12
HETATM   12  C   UNL     1      -3.528   2.202  -0.339  1.00  0.00    -0.030 C 
HETATM   13  C   UNL     1      -3.735   0.944  -0.768  1.00  0.00    -0.027 C 
BRANCH  13  14
HETATM   14  C   UNL     1      -3.416  -0.277   0.053  1.00  0.00     0.053 C 
BRANCH  14  15
HETATM   15  C   UNL     1      -3.750  -1.531  -0.716  1.00  0.00    -0.027 C 
HETATM   16  C   UNL     1      -2.872  -2.497  -1.056  1.00  0.00    -0.027 C 
BRANCH  16  17
HETATM   17  C   UNL     1      -1.406  -2.515  -0.701  1.00  0.00     0.053 C 
BRANCH  17  18
HETATM   18  C   UNL     1      -1.202  -2.711   0.787  1.00  0.00    -0.027 C 
HETATM   19  C   UNL     1      -0.519  -3.724   1.356  1.00  0.00    -0.031 C 
BRANCH  19  20
HETATM   20  C   UNL     1       0.207  -4.824   0.620  1.00  0.00     0.022 C 
HETATM   21  C   UNL     1       1.452  -4.309  -0.106  1.00  0.00     0.009 C 
ENDBRANCH  19  20
ENDBRANCH  17  18
ENDBRANCH  16  17
ENDBRANCH  14  15
ENDBRANCH  13  14
ENDBRANCH  11  12
ENDBRANCH  10  11
ENDBRANCH   9  10
ENDBRANCH   8   9
ENDBRANCH   7   8
ENDBRANCH   6   7
ENDBRANCH   5   6
ENDBRANCH   3   5
ENDBRANCH   1   3
TORSDOF 14
