REMARK  14 active torsions:
REMARK  status: ('A' for Active; 'I' for Inactive)
REMARK    1  A    between atoms: O_1  and  C_11 
REMARK    2  A    between atoms: C_3  and  C_4 
REMARK    3  A    between atoms: C_3  and  C_5 
REMARK    4  A    between atoms: C_4  and  C_6 
REMARK    5  A    between atoms: C_5  and  C_11 
REMARK    6  A    between atoms: C_7  and  C_8 
REMARK    7  A    between atoms: C_7  and  C_9 
REMARK    8  A    between atoms: C_10  and  C_12 
REMARK    9  A    between atoms: C_10  and  C_14 
REMARK   10  A    between atoms: C_13  and  C_16 
REMARK   11  A    between atoms: C_13  and  C_17 
REMARK   12  A    between atoms: C_15  and  C_18 
REMARK   13  A    between atoms: C_15  and  C_19 
REMARK   14  A    between atoms: C_20  and  C_21 
ROOT
HETATM    1  O   UNL     1       3.902   0.727  -3.545  1.00  0.00    -0.776 OA
HETATM    2  H   UNL     1       4.648   1.333  -3.658  1.00  0.00     0.167 HD
ENDROOT
BRANCH   1   3
HETATM    3  C   UNL     1       3.741   0.012  -2.413  1.00  0.00     0.139 C 
HETATM    4  O   UNL     1       4.550   0.125  -1.503  1.00  0.00    -0.650 OA
BRANCH   3   5
HETATM    5  C   UNL     1       2.559  -0.915  -2.296  1.00  0.00     0.110 C 
BRANCH   5   6
HETATM    6  C   UNL     1       2.506  -1.658  -0.953  1.00  0.00     0.014 C 
BRANCH   6   7
HETATM    7  C   UNL     1       1.282  -2.575  -0.881  1.00  0.00     0.027 C 
BRANCH   7   8
HETATM    8  C   UNL     1       1.239  -3.275   0.453  1.00  0.00    -0.030 C 
HETATM    9  C   UNL     1       0.235  -3.184   1.347  1.00  0.00    -0.027 C 
BRANCH   9  10
HETATM   10  C   UNL     1      -1.034  -2.390   1.163  1.00  0.00     0.053 C 
BRANCH  10  11
HETATM   11  C   UNL     1      -1.900  -2.998   0.085  1.00  0.00    -0.027 C 
HETATM   12  C   UNL     1      -2.388  -2.387  -1.013  1.00  0.00    -0.027 C 
BRANCH  12  13
HETATM   13  C   UNL     1      -2.181  -0.951  -1.433  1.00  0.00     0.053 C 
BRANCH  13  14
HETATM   14  C   UNL     1      -3.523  -0.275  -1.541  1.00  0.00    -0.027 C 
HETATM   15  C   UNL     1      -3.885   0.857  -0.908  1.00  0.00    -0.027 C 
BRANCH  15  16
HETATM   16  C   UNL     1      -3.003   1.683  -0.006  1.00  0.00     0.053 C 
BRANCH  16  17
HETATM   17  C   UNL     1      -1.900   2.340  -0.807  1.00  0.00    -0.027 C 
HETATM   18  C   UNL     1      -0.572   2.268  -0.583  1.00  0.00    -0.027 C 
BRANCH  18  19
HETATM   19  C   UNL     1       0.116   1.518   0.527  1.00  0.00     0.053 C 
BRANCH  19  20
HETATM   20  C   UNL     1       0.944   2.479   1.342  1.00  0.00    -0.027 C 
HETATM   21  C   UNL     1       0.798   2.692   2.662  1.00  0.00    -0.031 C 
BRANCH  21  22
HETATM   22  C   UNL     1      -0.228   1.990   3.516  1.00  0.00     0.022 C 
HETATM   23  C   UNL     1      -0.149   2.446   4.969  1.00  0.00     0.009 C 
ENDBRANCH  21  22
ENDBRANCH  19  20
ENDBRANCH  18  19
ENDBRANCH  16  17
ENDBRANCH  15  16
ENDBRANCH  13  14
ENDBRANCH  12  13
ENDBRANCH  10  11
ENDBRANCH   9  10
ENDBRANCH   7   8
ENDBRANCH   6   7
ENDBRANCH   5   6
ENDBRANCH   3   5
ENDBRANCH   1   3
TORSDOF 14
