REMARK  11 active torsions:
REMARK  status: ('A' for Active; 'I' for Inactive)
REMARK    1  A    between atoms: O_1  and  C_14 
REMARK    2  A    between atoms: C_3  and  C_4 
REMARK    3  A    between atoms: C_3  and  C_5 
REMARK    4  A    between atoms: C_4  and  C_6 
REMARK    5  A    between atoms: C_5  and  C_7 
REMARK    6  A    between atoms: C_6  and  C_8 
REMARK    7  A    between atoms: C_7  and  C_9 
REMARK    8  A    between atoms: C_8  and  C_10 
REMARK    9  A    between atoms: C_9  and  C_11 
REMARK   10  A    between atoms: C_10  and  C_12 
REMARK   11  A    between atoms: C_12  and  C_14 
ROOT
HETATM    1  O   UNL     1      -7.050   0.591  -0.005  1.00  0.00    -0.776 OA
HETATM    2  H   UNL     1      -7.904   0.136  -0.029  1.00  0.00     0.167 HD
ENDROOT
BRANCH   1   3
HETATM    3  C   UNL     1      -5.886  -0.092  -0.034  1.00  0.00     0.139 C 
HETATM    4  O   UNL     1      -5.900  -1.313  -0.092  1.00  0.00    -0.650 OA
BRANCH   3   5
HETATM    5  C   UNL     1      -4.589   0.674   0.007  1.00  0.00     0.110 C 
BRANCH   5   6
HETATM    6  C   UNL     1      -3.351  -0.235  -0.033  1.00  0.00     0.010 C 
BRANCH   6   7
HETATM    7  C   UNL     1      -2.061   0.592   0.011  1.00  0.00     0.001 C 
BRANCH   7   8
HETATM    8  C   UNL     1      -0.825  -0.315  -0.028  1.00  0.00     0.000 C 
BRANCH   8   9
HETATM    9  C   UNL     1       0.466   0.511   0.016  1.00  0.00     0.000 C 
BRANCH   9  10
HETATM   10  C   UNL     1       1.702  -0.395  -0.024  1.00  0.00     0.000 C 
BRANCH  10  11
HETATM   11  C   UNL     1       2.993   0.431   0.020  1.00  0.00     0.000 C 
BRANCH  11  12
HETATM   12  C   UNL     1       4.228  -0.476  -0.019  1.00  0.00     0.000 C 
BRANCH  12  13
HETATM   13  C   UNL     1       5.519   0.351   0.025  1.00  0.00    -0.000 C 
BRANCH  13  14
HETATM   14  C   UNL     1       6.754  -0.556  -0.014  1.00  0.00    -0.005 C 
HETATM   15  C   UNL     1       8.041   0.263   0.030  1.00  0.00     0.005 C 
ENDBRANCH  13  14
ENDBRANCH  12  13
ENDBRANCH  11  12
ENDBRANCH  10  11
ENDBRANCH   9  10
ENDBRANCH   8   9
ENDBRANCH   7   8
ENDBRANCH   6   7
ENDBRANCH   5   6
ENDBRANCH   3   5
ENDBRANCH   1   3
TORSDOF 11
