MODEL 1
REMARK VINA RESULT:      -4.7      0.000      0.000
REMARK  15 active torsions:
REMARK  status: ('A' for Active; 'I' for Inactive)
REMARK    1  A    between atoms: O_1  and  C_18 
REMARK    2  A    between atoms: C_3  and  C_4 
REMARK    3  A    between atoms: C_3  and  C_5 
REMARK    4  A    between atoms: C_4  and  C_6 
REMARK    5  A    between atoms: C_5  and  C_7 
REMARK    6  A    between atoms: C_6  and  C_8 
REMARK    7  A    between atoms: C_7  and  C_9 
REMARK    8  A    between atoms: C_8  and  C_12 
REMARK    9  A    between atoms: C_9  and  C_18 
REMARK   10  A    between atoms: C_10  and  C_11 
REMARK   11  A    between atoms: C_10  and  C_13 
REMARK   12  A    between atoms: C_11  and  C_14 
REMARK   13  A    between atoms: C_13  and  C_17 
REMARK   14  A    between atoms: C_15  and  C_16 
REMARK   15  A    between atoms: C_16  and  C_19 
ROOT
HETATM    1  O   UNL     1      32.054   4.413 -11.933  1.00  0.00    -0.776 OA
HETATM    2  H   UNL     1      32.088   3.503 -11.605  1.00  0.00     0.167 HD
ENDROOT
BRANCH   1   3
HETATM    3  C   UNL     1      30.940   5.165 -11.805  1.00  0.00     0.139 C 
HETATM    4  O   UNL     1      30.004   5.000 -12.575  1.00  0.00    -0.650 OA
BRANCH   3   5
HETATM    5  C   UNL     1      30.878   6.199 -10.711  1.00  0.00     0.110 C 
BRANCH   5   6
HETATM    6  C   UNL     1      32.041   6.093  -9.716  1.00  0.00     0.010 C 
BRANCH   6   7
HETATM    7  C   UNL     1      32.895   7.367  -9.725  1.00  0.00     0.001 C 
BRANCH   7   8
HETATM    8  C   UNL     1      34.155   7.178 -10.578  1.00  0.00     0.000 C 
BRANCH   8   9
HETATM    9  C   UNL     1      34.358   8.361 -11.530  1.00  0.00     0.000 C 
BRANCH   9  10
HETATM   10  C   UNL     1      33.434   8.253 -12.750  1.00  0.00     0.004 C 
BRANCH  10  11
HETATM   11  C   UNL     1      33.740   6.981 -13.551  1.00  0.00     0.027 C 
BRANCH  11  12
HETATM   12  C   UNL     1      33.877   7.266 -15.023  1.00  0.00    -0.030 C 
HETATM   13  C   UNL     1      33.486   6.458 -16.026  1.00  0.00    -0.027 C 
BRANCH  13  14
HETATM   14  C   UNL     1      32.877   5.085 -15.883  1.00  0.00     0.053 C 
BRANCH  14  15
HETATM   15  C   UNL     1      31.372   5.196 -15.824  1.00  0.00    -0.027 C 
HETATM   16  C   UNL     1      30.519   5.313 -16.861  1.00  0.00    -0.030 C 
BRANCH  16  17
HETATM   17  C   UNL     1      30.866   5.379 -18.329  1.00  0.00     0.027 C 
BRANCH  17  18
HETATM   18  C   UNL     1      31.026   6.834 -18.781  1.00  0.00     0.004 C 
BRANCH  18  19
HETATM   19  C   UNL     1      32.190   6.971 -19.771  1.00  0.00    -0.000 C 
BRANCH  19  20
HETATM   20  C   UNL     1      33.129   5.761 -19.696  1.00  0.00    -0.005 C 
HETATM   21  C   UNL     1      33.148   4.999 -21.017  1.00  0.00     0.005 C 
ENDBRANCH  19  20
ENDBRANCH  18  19
ENDBRANCH  17  18
ENDBRANCH  16  17
ENDBRANCH  14  15
ENDBRANCH  13  14
ENDBRANCH  11  12
ENDBRANCH  10  11
ENDBRANCH   9  10
ENDBRANCH   8   9
ENDBRANCH   7   8
ENDBRANCH   6   7
ENDBRANCH   5   6
ENDBRANCH   3   5
ENDBRANCH   1   3
TORSDOF 15
ENDMDL
MODEL 2
REMARK VINA RESULT:      -4.6      3.754      5.438
REMARK  15 active torsions:
REMARK  status: ('A' for Active; 'I' for Inactive)
REMARK    1  A    between atoms: O_1  and  C_18 
REMARK    2  A    between atoms: C_3  and  C_4 
REMARK    3  A    between atoms: C_3  and  C_5 
REMARK    4  A    between atoms: C_4  and  C_6 
REMARK    5  A    between atoms: C_5  and  C_7 
REMARK    6  A    between atoms: C_6  and  C_8 
REMARK    7  A    between atoms: C_7  and  C_9 
REMARK    8  A    between atoms: C_8  and  C_12 
REMARK    9  A    between atoms: C_9  and  C_18 
REMARK   10  A    between atoms: C_10  and  C_11 
REMARK   11  A    between atoms: C_10  and  C_13 
REMARK   12  A    between atoms: C_11  and  C_14 
REMARK   13  A    between atoms: C_13  and  C_17 
REMARK   14  A    between atoms: C_15  and  C_16 
REMARK   15  A    between atoms: C_16  and  C_19 
ROOT
HETATM    1  O   UNL     1      30.615  12.007 -17.823  1.00  0.00    -0.776 OA
HETATM    2  H   UNL     1      31.310  12.354 -18.400  1.00  0.00     0.167 HD
ENDROOT
BRANCH   1   3
HETATM    3  C   UNL     1      30.010  10.829 -18.079  1.00  0.00     0.139 C 
HETATM    4  O   UNL     1      28.846  10.658 -17.743  1.00  0.00    -0.650 OA
BRANCH   3   5
HETATM    5  C   UNL     1      30.788   9.743 -18.777  1.00  0.00     0.110 C 
BRANCH   5   6
HETATM    6  C   UNL     1      31.822   9.065 -17.868  1.00  0.00     0.010 C 
BRANCH   6   7
HETATM    7  C   UNL     1      33.104   8.732 -18.640  1.00  0.00     0.001 C 
BRANCH   7   8
HETATM    8  C   UNL     1      34.283   8.519 -17.684  1.00  0.00     0.000 C 
BRANCH   8   9
HETATM    9  C   UNL     1      33.812   8.483 -16.227  1.00  0.00     0.000 C 
BRANCH   9  10
HETATM   10  C   UNL     1      34.553   7.400 -15.434  1.00  0.00     0.004 C 
BRANCH  10  11
HETATM   11  C   UNL     1      33.952   6.016 -15.712  1.00  0.00     0.027 C 
BRANCH  11  12
HETATM   12  C   UNL     1      33.015   5.582 -14.616  1.00  0.00    -0.030 C 
HETATM   13  C   UNL     1      31.682   5.764 -14.596  1.00  0.00    -0.027 C 
BRANCH  13  14
HETATM   14  C   UNL     1      30.860   6.479 -15.640  1.00  0.00     0.053 C 
BRANCH  14  15
HETATM   15  C   UNL     1      30.122   5.471 -16.489  1.00  0.00    -0.027 C 
HETATM   16  C   UNL     1      30.469   5.020 -17.710  1.00  0.00    -0.030 C 
BRANCH  16  17
HETATM   17  C   UNL     1      31.669   5.429 -18.530  1.00  0.00     0.027 C 
BRANCH  17  18
HETATM   18  C   UNL     1      31.306   5.508 -20.017  1.00  0.00     0.004 C 
BRANCH  18  19
HETATM   19  C   UNL     1      32.548   5.808 -20.865  1.00  0.00    -0.000 C 
BRANCH  19  20
HETATM   20  C   UNL     1      32.290   6.964 -21.839  1.00  0.00    -0.005 C 
HETATM   21  C   UNL     1      33.591   7.672 -22.206  1.00  0.00     0.005 C 
ENDBRANCH  19  20
ENDBRANCH  18  19
ENDBRANCH  17  18
ENDBRANCH  16  17
ENDBRANCH  14  15
ENDBRANCH  13  14
ENDBRANCH  11  12
ENDBRANCH  10  11
ENDBRANCH   9  10
ENDBRANCH   8   9
ENDBRANCH   7   8
ENDBRANCH   6   7
ENDBRANCH   5   6
ENDBRANCH   3   5
ENDBRANCH   1   3
TORSDOF 15
ENDMDL
MODEL 3
REMARK VINA RESULT:      -4.2      4.401      8.451
REMARK  15 active torsions:
REMARK  status: ('A' for Active; 'I' for Inactive)
REMARK    1  A    between atoms: O_1  and  C_18 
REMARK    2  A    between atoms: C_3  and  C_4 
REMARK    3  A    between atoms: C_3  and  C_5 
REMARK    4  A    between atoms: C_4  and  C_6 
REMARK    5  A    between atoms: C_5  and  C_7 
REMARK    6  A    between atoms: C_6  and  C_8 
REMARK    7  A    between atoms: C_7  and  C_9 
REMARK    8  A    between atoms: C_8  and  C_12 
REMARK    9  A    between atoms: C_9  and  C_18 
REMARK   10  A    between atoms: C_10  and  C_11 
REMARK   11  A    between atoms: C_10  and  C_13 
REMARK   12  A    between atoms: C_11  and  C_14 
REMARK   13  A    between atoms: C_13  and  C_17 
REMARK   14  A    between atoms: C_15  and  C_16 
REMARK   15  A    between atoms: C_16  and  C_19 
ROOT
HETATM    1  O   UNL     1      29.771  13.049 -21.146  1.00  0.00    -0.776 OA
HETATM    2  H   UNL     1      30.345  13.251 -21.899  1.00  0.00     0.167 HD
ENDROOT
BRANCH   1   3
HETATM    3  C   UNL     1      29.259  11.813 -20.965  1.00  0.00     0.139 C 
HETATM    4  O   UNL     1      28.444  11.619 -20.074  1.00  0.00    -0.650 OA
BRANCH   3   5
HETATM    5  C   UNL     1      29.708  10.695 -21.869  1.00  0.00     0.110 C 
BRANCH   5   6
HETATM    6  C   UNL     1      30.817   9.831 -21.253  1.00  0.00     0.010 C 
BRANCH   6   7
HETATM    7  C   UNL     1      30.246   8.854 -20.219  1.00  0.00     0.001 C 
BRANCH   7   8
HETATM    8  C   UNL     1      30.297   7.412 -20.738  1.00  0.00     0.000 C 
BRANCH   8   9
HETATM    9  C   UNL     1      30.955   7.346 -22.120  1.00  0.00     0.000 C 
BRANCH   9  10
HETATM   10  C   UNL     1      31.726   6.033 -22.302  1.00  0.00     0.004 C 
BRANCH  10  11
HETATM   11  C   UNL     1      32.135   5.451 -20.942  1.00  0.00     0.027 C 
BRANCH  11  12
HETATM   12  C   UNL     1      33.629   5.462 -20.755  1.00  0.00    -0.030 C 
HETATM   13  C   UNL     1      34.359   6.487 -20.280  1.00  0.00    -0.027 C 
BRANCH  13  14
HETATM   14  C   UNL     1      33.841   7.847 -19.882  1.00  0.00     0.053 C 
BRANCH  14  15
HETATM   15  C   UNL     1      33.983   8.032 -18.390  1.00  0.00    -0.027 C 
HETATM   16  C   UNL     1      33.118   7.642 -17.432  1.00  0.00    -0.030 C 
BRANCH  16  17
HETATM   17  C   UNL     1      31.793   6.945 -17.623  1.00  0.00     0.027 C 
BRANCH  17  18
HETATM   18  C   UNL     1      31.878   5.485 -17.166  1.00  0.00     0.004 C 
BRANCH  18  19
HETATM   19  C   UNL     1      30.780   5.170 -16.143  1.00  0.00    -0.000 C 
BRANCH  19  20
HETATM   20  C   UNL     1      31.124   5.743 -14.763  1.00  0.00    -0.005 C 
HETATM   21  C   UNL     1      32.517   5.304 -14.319  1.00  0.00     0.005 C 
ENDBRANCH  19  20
ENDBRANCH  18  19
ENDBRANCH  17  18
ENDBRANCH  16  17
ENDBRANCH  14  15
ENDBRANCH  13  14
ENDBRANCH  11  12
ENDBRANCH  10  11
ENDBRANCH   9  10
ENDBRANCH   8   9
ENDBRANCH   7   8
ENDBRANCH   6   7
ENDBRANCH   5   6
ENDBRANCH   3   5
ENDBRANCH   1   3
TORSDOF 15
ENDMDL
MODEL 4
REMARK VINA RESULT:      -4.2      2.720      7.334
REMARK  15 active torsions:
REMARK  status: ('A' for Active; 'I' for Inactive)
REMARK    1  A    between atoms: O_1  and  C_18 
REMARK    2  A    between atoms: C_3  and  C_4 
REMARK    3  A    between atoms: C_3  and  C_5 
REMARK    4  A    between atoms: C_4  and  C_6 
REMARK    5  A    between atoms: C_5  and  C_7 
REMARK    6  A    between atoms: C_6  and  C_8 
REMARK    7  A    between atoms: C_7  and  C_9 
REMARK    8  A    between atoms: C_8  and  C_12 
REMARK    9  A    between atoms: C_9  and  C_18 
REMARK   10  A    between atoms: C_10  and  C_11 
REMARK   11  A    between atoms: C_10  and  C_13 
REMARK   12  A    between atoms: C_11  and  C_14 
REMARK   13  A    between atoms: C_13  and  C_17 
REMARK   14  A    between atoms: C_15  and  C_16 
REMARK   15  A    between atoms: C_16  and  C_19 
ROOT
HETATM    1  O   UNL     1      30.354   8.086 -19.212  1.00  0.00    -0.776 OA
HETATM    2  H   UNL     1      29.960   7.682 -18.426  1.00  0.00     0.167 HD
ENDROOT
BRANCH   1   3
HETATM    3  C   UNL     1      31.522   7.641 -19.722  1.00  0.00     0.139 C 
HETATM    4  O   UNL     1      32.287   8.426 -20.264  1.00  0.00    -0.650 OA
BRANCH   3   5
HETATM    5  C   UNL     1      31.857   6.176 -19.611  1.00  0.00     0.110 C 
BRANCH   5   6
HETATM    6  C   UNL     1      31.057   5.457 -18.516  1.00  0.00     0.010 C 
BRANCH   6   7
HETATM    7  C   UNL     1      31.539   5.866 -17.120  1.00  0.00     0.001 C 
BRANCH   7   8
HETATM    8  C   UNL     1      32.280   4.712 -16.434  1.00  0.00     0.000 C 
BRANCH   8   9
HETATM    9  C   UNL     1      33.586   5.196 -15.797  1.00  0.00     0.000 C 
BRANCH   9  10
HETATM   10  C   UNL     1      33.632   6.727 -15.728  1.00  0.00     0.004 C 
BRANCH  10  11
HETATM   11  C   UNL     1      34.087   7.194 -14.339  1.00  0.00     0.027 C 
BRANCH  11  12
HETATM   12  C   UNL     1      33.093   8.136 -13.712  1.00  0.00    -0.030 C 
HETATM   13  C   UNL     1      33.241   8.774 -12.536  1.00  0.00    -0.027 C 
BRANCH  13  14
HETATM   14  C   UNL     1      34.406   8.643 -11.586  1.00  0.00     0.053 C 
BRANCH  14  15
HETATM   15  C   UNL     1      33.947   7.997 -10.301  1.00  0.00    -0.027 C 
HETATM   16  C   UNL     1      33.783   6.681 -10.060  1.00  0.00    -0.030 C 
BRANCH  16  17
HETATM   17  C   UNL     1      33.998   5.540 -11.025  1.00  0.00     0.027 C 
BRANCH  17  18
HETATM   18  C   UNL     1      32.656   4.986 -11.516  1.00  0.00     0.004 C 
BRANCH  18  19
HETATM   19  C   UNL     1      31.517   5.413 -10.582  1.00  0.00    -0.000 C 
BRANCH  19  20
HETATM   20  C   UNL     1      30.388   6.098 -11.360  1.00  0.00    -0.005 C 
HETATM   21  C   UNL     1      30.322   7.587 -11.036  1.00  0.00     0.005 C 
ENDBRANCH  19  20
ENDBRANCH  18  19
ENDBRANCH  17  18
ENDBRANCH  16  17
ENDBRANCH  14  15
ENDBRANCH  13  14
ENDBRANCH  11  12
ENDBRANCH  10  11
ENDBRANCH   9  10
ENDBRANCH   8   9
ENDBRANCH   7   8
ENDBRANCH   6   7
ENDBRANCH   5   6
ENDBRANCH   3   5
ENDBRANCH   1   3
TORSDOF 15
ENDMDL
MODEL 5
REMARK VINA RESULT:      -4.1      2.720      3.565
REMARK  15 active torsions:
REMARK  status: ('A' for Active; 'I' for Inactive)
REMARK    1  A    between atoms: O_1  and  C_18 
REMARK    2  A    between atoms: C_3  and  C_4 
REMARK    3  A    between atoms: C_3  and  C_5 
REMARK    4  A    between atoms: C_4  and  C_6 
REMARK    5  A    between atoms: C_5  and  C_7 
REMARK    6  A    between atoms: C_6  and  C_8 
REMARK    7  A    between atoms: C_7  and  C_9 
REMARK    8  A    between atoms: C_8  and  C_12 
REMARK    9  A    between atoms: C_9  and  C_18 
REMARK   10  A    between atoms: C_10  and  C_11 
REMARK   11  A    between atoms: C_10  and  C_13 
REMARK   12  A    between atoms: C_11  and  C_14 
REMARK   13  A    between atoms: C_13  and  C_17 
REMARK   14  A    between atoms: C_15  and  C_16 
REMARK   15  A    between atoms: C_16  and  C_19 
ROOT
HETATM    1  O   UNL     1      30.841  11.720 -11.713  1.00  0.00    -0.776 OA
HETATM    2  H   UNL     1      30.501  12.623 -11.782  1.00  0.00     0.167 HD
ENDROOT
BRANCH   1   3
HETATM    3  C   UNL     1      30.015  10.669 -11.528  1.00  0.00     0.139 C 
HETATM    4  O   UNL     1      29.067  10.501 -12.282  1.00  0.00    -0.650 OA
BRANCH   3   5
HETATM    5  C   UNL     1      30.280   9.723 -10.385  1.00  0.00     0.110 C 
BRANCH   5   6
HETATM    6  C   UNL     1      31.610   8.971 -10.523  1.00  0.00     0.010 C 
BRANCH   6   7
HETATM    7  C   UNL     1      32.444   9.081  -9.242  1.00  0.00     0.001 C 
BRANCH   7   8
HETATM    8  C   UNL     1      32.798   7.693  -8.694  1.00  0.00     0.000 C 
BRANCH   8   9
HETATM    9  C   UNL     1      32.194   6.587  -9.564  1.00  0.00     0.000 C 
BRANCH   9  10
HETATM   10  C   UNL     1      33.281   5.639 -10.085  1.00  0.00     0.004 C 
BRANCH  10  11
HETATM   11  C   UNL     1      32.818   4.934 -11.366  1.00  0.00     0.027 C 
BRANCH  11  12
HETATM   12  C   UNL     1      31.345   5.131 -11.612  1.00  0.00    -0.030 C 
HETATM   13  C   UNL     1      30.756   5.272 -12.813  1.00  0.00    -0.027 C 
BRANCH  13  14
HETATM   14  C   UNL     1      31.450   5.310 -14.153  1.00  0.00     0.053 C 
BRANCH  14  15
HETATM   15  C   UNL     1      31.001   6.525 -14.928  1.00  0.00    -0.027 C 
HETATM   16  C   UNL     1      30.518   6.560 -16.186  1.00  0.00    -0.030 C 
BRANCH  16  17
HETATM   17  C   UNL     1      30.329   5.395 -17.127  1.00  0.00     0.027 C 
BRANCH  17  18
HETATM   18  C   UNL     1      31.427   5.378 -18.195  1.00  0.00     0.004 C 
BRANCH  18  19
HETATM   19  C   UNL     1      31.905   6.802 -18.505  1.00  0.00    -0.000 C 
BRANCH  19  20
HETATM   20  C   UNL     1      31.364   7.288 -19.855  1.00  0.00    -0.005 C 
HETATM   21  C   UNL     1      30.749   6.137 -20.646  1.00  0.00     0.005 C 
ENDBRANCH  19  20
ENDBRANCH  18  19
ENDBRANCH  17  18
ENDBRANCH  16  17
ENDBRANCH  14  15
ENDBRANCH  13  14
ENDBRANCH  11  12
ENDBRANCH  10  11
ENDBRANCH   9  10
ENDBRANCH   8   9
ENDBRANCH   7   8
ENDBRANCH   6   7
ENDBRANCH   5   6
ENDBRANCH   3   5
ENDBRANCH   1   3
TORSDOF 15
ENDMDL
MODEL 6
REMARK VINA RESULT:      -4.0     39.309     40.683
REMARK  15 active torsions:
REMARK  status: ('A' for Active; 'I' for Inactive)
REMARK    1  A    between atoms: O_1  and  C_18 
REMARK    2  A    between atoms: C_3  and  C_4 
REMARK    3  A    between atoms: C_3  and  C_5 
REMARK    4  A    between atoms: C_4  and  C_6 
REMARK    5  A    between atoms: C_5  and  C_7 
REMARK    6  A    between atoms: C_6  and  C_8 
REMARK    7  A    between atoms: C_7  and  C_9 
REMARK    8  A    between atoms: C_8  and  C_12 
REMARK    9  A    between atoms: C_9  and  C_18 
REMARK   10  A    between atoms: C_10  and  C_11 
REMARK   11  A    between atoms: C_10  and  C_13 
REMARK   12  A    between atoms: C_11  and  C_14 
REMARK   13  A    between atoms: C_13  and  C_17 
REMARK   14  A    between atoms: C_15  and  C_16 
REMARK   15  A    between atoms: C_16  and  C_19 
ROOT
HETATM    1  O   UNL     1     -10.007  16.826 -10.047  1.00  0.00    -0.776 OA
HETATM    2  H   UNL     1     -10.645  16.753 -10.771  1.00  0.00     0.167 HD
ENDROOT
BRANCH   1   3
HETATM    3  C   UNL     1      -8.678  16.840 -10.279  1.00  0.00     0.139 C 
HETATM    4  O   UNL     1      -7.932  17.424  -9.506  1.00  0.00    -0.650 OA
BRANCH   3   5
HETATM    5  C   UNL     1      -8.141  16.133 -11.497  1.00  0.00     0.110 C 
BRANCH   5   6
HETATM    6  C   UNL     1      -7.354  17.060 -12.433  1.00  0.00     0.010 C 
BRANCH   6   7
HETATM    7  C   UNL     1      -7.047  16.368 -13.767  1.00  0.00     0.001 C 
BRANCH   7   8
HETATM    8  C   UNL     1      -5.897  15.366 -13.614  1.00  0.00     0.000 C 
BRANCH   8   9
HETATM    9  C   UNL     1      -5.507  14.764 -14.968  1.00  0.00     0.000 C 
BRANCH   9  10
HETATM   10  C   UNL     1      -6.699  14.760 -15.934  1.00  0.00     0.004 C 
BRANCH  10  11
HETATM   11  C   UNL     1      -6.261  15.200 -17.337  1.00  0.00     0.027 C 
BRANCH  11  12
HETATM   12  C   UNL     1      -5.294  16.353 -17.285  1.00  0.00    -0.030 C 
HETATM   13  C   UNL     1      -5.600  17.651 -17.466  1.00  0.00    -0.027 C 
BRANCH  13  14
HETATM   14  C   UNL     1      -6.959  18.213 -17.802  1.00  0.00     0.053 C 
BRANCH  14  15
HETATM   15  C   UNL     1      -6.815  19.350 -18.784  1.00  0.00    -0.027 C 
HETATM   16  C   UNL     1      -6.906  19.287 -20.127  1.00  0.00    -0.030 C 
BRANCH  16  17
HETATM   17  C   UNL     1      -7.154  18.060 -20.972  1.00  0.00     0.027 C 
BRANCH  17  18
HETATM   18  C   UNL     1      -5.840  17.529 -21.554  1.00  0.00     0.004 C 
BRANCH  18  19
HETATM   19  C   UNL     1      -5.464  16.188 -20.913  1.00  0.00    -0.000 C 
BRANCH  19  20
HETATM   20  C   UNL     1      -6.607  15.173 -21.038  1.00  0.00    -0.005 C 
HETATM   21  C   UNL     1      -6.136  13.770 -20.664  1.00  0.00     0.005 C 
ENDBRANCH  19  20
ENDBRANCH  18  19
ENDBRANCH  17  18
ENDBRANCH  16  17
ENDBRANCH  14  15
ENDBRANCH  13  14
ENDBRANCH  11  12
ENDBRANCH  10  11
ENDBRANCH   9  10
ENDBRANCH   8   9
ENDBRANCH   7   8
ENDBRANCH   6   7
ENDBRANCH   5   6
ENDBRANCH   3   5
ENDBRANCH   1   3
TORSDOF 15
ENDMDL
MODEL 7
REMARK VINA RESULT:      -4.0     48.243     50.009
REMARK  15 active torsions:
REMARK  status: ('A' for Active; 'I' for Inactive)
REMARK    1  A    between atoms: O_1  and  C_18 
REMARK    2  A    between atoms: C_3  and  C_4 
REMARK    3  A    between atoms: C_3  and  C_5 
REMARK    4  A    between atoms: C_4  and  C_6 
REMARK    5  A    between atoms: C_5  and  C_7 
REMARK    6  A    between atoms: C_6  and  C_8 
REMARK    7  A    between atoms: C_7  and  C_9 
REMARK    8  A    between atoms: C_8  and  C_12 
REMARK    9  A    between atoms: C_9  and  C_18 
REMARK   10  A    between atoms: C_10  and  C_11 
REMARK   11  A    between atoms: C_10  and  C_13 
REMARK   12  A    between atoms: C_11  and  C_14 
REMARK   13  A    between atoms: C_13  and  C_17 
REMARK   14  A    between atoms: C_15  and  C_16 
REMARK   15  A    between atoms: C_16  and  C_19 
ROOT
HETATM    1  O   UNL     1     -12.933   8.405  -8.779  1.00  0.00    -0.776 OA
HETATM    2  H   UNL     1     -13.120   8.962  -8.010  1.00  0.00     0.167 HD
ENDROOT
BRANCH   1   3
HETATM    3  C   UNL     1     -12.933   8.911 -10.030  1.00  0.00     0.139 C 
HETATM    4  O   UNL     1     -12.521   8.232 -10.960  1.00  0.00    -0.650 OA
BRANCH   3   5
HETATM    5  C   UNL     1     -13.442  10.312 -10.252  1.00  0.00     0.110 C 
BRANCH   5   6
HETATM    6  C   UNL     1     -14.369  10.801  -9.131  1.00  0.00     0.010 C 
BRANCH   6   7
HETATM    7  C   UNL     1     -15.561  11.580  -9.698  1.00  0.00     0.001 C 
BRANCH   7   8
HETATM    8  C   UNL     1     -15.758  11.276 -11.188  1.00  0.00     0.000 C 
BRANCH   8   9
HETATM    9  C   UNL     1     -17.156  10.710 -11.456  1.00  0.00     0.000 C 
BRANCH   9  10
HETATM   10  C   UNL     1     -17.659   9.894 -10.258  1.00  0.00     0.004 C 
BRANCH  10  11
HETATM   11  C   UNL     1     -19.104  10.275  -9.912  1.00  0.00     0.027 C 
BRANCH  11  12
HETATM   12  C   UNL     1     -19.164  11.320  -8.829  1.00  0.00    -0.030 C 
HETATM   13  C   UNL     1     -19.303  12.645  -9.014  1.00  0.00    -0.027 C 
BRANCH  13  14
HETATM   14  C   UNL     1     -19.381  13.360 -10.341  1.00  0.00     0.053 C 
BRANCH  14  15
HETATM   15  C   UNL     1     -20.736  13.130 -10.967  1.00  0.00    -0.027 C 
HETATM   16  C   UNL     1     -21.052  13.192 -12.275  1.00  0.00    -0.030 C 
BRANCH  16  17
HETATM   17  C   UNL     1     -20.133  13.526 -13.425  1.00  0.00     0.027 C 
BRANCH  17  18
HETATM   18  C   UNL     1     -19.392  12.275 -13.907  1.00  0.00     0.004 C 
BRANCH  18  19
HETATM   19  C   UNL     1     -18.214  12.655 -14.812  1.00  0.00    -0.000 C 
BRANCH  19  20
HETATM   20  C   UNL     1     -17.291  11.455 -15.056  1.00  0.00    -0.005 C 
HETATM   21  C   UNL     1     -15.825  11.881 -15.052  1.00  0.00     0.005 C 
ENDBRANCH  19  20
ENDBRANCH  18  19
ENDBRANCH  17  18
ENDBRANCH  16  17
ENDBRANCH  14  15
ENDBRANCH  13  14
ENDBRANCH  11  12
ENDBRANCH  10  11
ENDBRANCH   9  10
ENDBRANCH   8   9
ENDBRANCH   7   8
ENDBRANCH   6   7
ENDBRANCH   5   6
ENDBRANCH   3   5
ENDBRANCH   1   3
TORSDOF 15
ENDMDL
MODEL 8
REMARK VINA RESULT:      -4.0     47.691     49.386
REMARK  15 active torsions:
REMARK  status: ('A' for Active; 'I' for Inactive)
REMARK    1  A    between atoms: O_1  and  C_18 
REMARK    2  A    between atoms: C_3  and  C_4 
REMARK    3  A    between atoms: C_3  and  C_5 
REMARK    4  A    between atoms: C_4  and  C_6 
REMARK    5  A    between atoms: C_5  and  C_7 
REMARK    6  A    between atoms: C_6  and  C_8 
REMARK    7  A    between atoms: C_7  and  C_9 
REMARK    8  A    between atoms: C_8  and  C_12 
REMARK    9  A    between atoms: C_9  and  C_18 
REMARK   10  A    between atoms: C_10  and  C_11 
REMARK   11  A    between atoms: C_10  and  C_13 
REMARK   12  A    between atoms: C_11  and  C_14 
REMARK   13  A    between atoms: C_13  and  C_17 
REMARK   14  A    between atoms: C_15  and  C_16 
REMARK   15  A    between atoms: C_16  and  C_19 
ROOT
HETATM    1  O   UNL     1     -21.514  11.597 -11.624  1.00  0.00    -0.776 OA
HETATM    2  H   UNL     1     -22.200  11.076 -11.182  1.00  0.00     0.167 HD
ENDROOT
BRANCH   1   3
HETATM    3  C   UNL     1     -21.318  12.899 -11.328  1.00  0.00     0.139 C 
HETATM    4  O   UNL     1     -22.225  13.703 -11.494  1.00  0.00    -0.650 OA
BRANCH   3   5
HETATM    5  C   UNL     1     -19.976  13.334 -10.798  1.00  0.00     0.110 C 
BRANCH   5   6
HETATM    6  C   UNL     1     -19.797  13.045  -9.302  1.00  0.00     0.010 C 
BRANCH   6   7
HETATM    7  C   UNL     1     -18.687  12.014  -9.067  1.00  0.00     0.001 C 
BRANCH   7   8
HETATM    8  C   UNL     1     -17.527  12.222 -10.049  1.00  0.00     0.000 C 
BRANCH   8   9
HETATM    9  C   UNL     1     -16.277  11.464  -9.593  1.00  0.00     0.000 C 
BRANCH   9  10
HETATM   10  C   UNL     1     -15.025  11.980 -10.314  1.00  0.00     0.004 C 
BRANCH  10  11
HETATM   11  C   UNL     1     -14.338  10.847 -11.086  1.00  0.00     0.027 C 
BRANCH  11  12
HETATM   12  C   UNL     1     -15.325  10.027 -11.874  1.00  0.00    -0.030 C 
HETATM   13  C   UNL     1     -15.048   8.911 -12.573  1.00  0.00    -0.027 C 
BRANCH  13  14
HETATM   14  C   UNL     1     -13.689   8.280 -12.750  1.00  0.00     0.053 C 
BRANCH  14  15
HETATM   15  C   UNL     1     -13.358   8.181 -14.220  1.00  0.00    -0.027 C 
HETATM   16  C   UNL     1     -13.055   9.191 -15.059  1.00  0.00    -0.030 C 
BRANCH  16  17
HETATM   17  C   UNL     1     -12.993  10.664 -14.736  1.00  0.00     0.027 C 
BRANCH  17  18
HETATM   18  C   UNL     1     -13.946  11.456 -15.637  1.00  0.00     0.004 C 
BRANCH  18  19
HETATM   19  C   UNL     1     -15.242  11.798 -14.891  1.00  0.00    -0.000 C 
BRANCH  19  20
HETATM   20  C   UNL     1     -16.476  11.431 -15.723  1.00  0.00    -0.005 C 
HETATM   21  C   UNL     1     -16.171  10.280 -16.678  1.00  0.00     0.005 C 
ENDBRANCH  19  20
ENDBRANCH  18  19
ENDBRANCH  17  18
ENDBRANCH  16  17
ENDBRANCH  14  15
ENDBRANCH  13  14
ENDBRANCH  11  12
ENDBRANCH  10  11
ENDBRANCH   9  10
ENDBRANCH   8   9
ENDBRANCH   7   8
ENDBRANCH   6   7
ENDBRANCH   5   6
ENDBRANCH   3   5
ENDBRANCH   1   3
TORSDOF 15
ENDMDL
MODEL 9
REMARK VINA RESULT:      -4.0     28.926     32.018
REMARK  15 active torsions:
REMARK  status: ('A' for Active; 'I' for Inactive)
REMARK    1  A    between atoms: O_1  and  C_18 
REMARK    2  A    between atoms: C_3  and  C_4 
REMARK    3  A    between atoms: C_3  and  C_5 
REMARK    4  A    between atoms: C_4  and  C_6 
REMARK    5  A    between atoms: C_5  and  C_7 
REMARK    6  A    between atoms: C_6  and  C_8 
REMARK    7  A    between atoms: C_7  and  C_9 
REMARK    8  A    between atoms: C_8  and  C_12 
REMARK    9  A    between atoms: C_9  and  C_18 
REMARK   10  A    between atoms: C_10  and  C_11 
REMARK   11  A    between atoms: C_10  and  C_13 
REMARK   12  A    between atoms: C_11  and  C_14 
REMARK   13  A    between atoms: C_13  and  C_17 
REMARK   14  A    between atoms: C_15  and  C_16 
REMARK   15  A    between atoms: C_16  and  C_19 
ROOT
HETATM    1  O   UNL     1       2.750  10.258  -6.266  1.00  0.00    -0.776 OA
HETATM    2  H   UNL     1       2.589  11.191  -6.469  1.00  0.00     0.167 HD
ENDROOT
BRANCH   1   3
HETATM    3  C   UNL     1       3.961   9.695  -6.460  1.00  0.00     0.139 C 
HETATM    4  O   UNL     1       4.353   9.474  -7.597  1.00  0.00    -0.650 OA
BRANCH   3   5
HETATM    5  C   UNL     1       4.806   9.348  -5.262  1.00  0.00     0.110 C 
BRANCH   5   6
HETATM    6  C   UNL     1       4.247   9.911  -3.948  1.00  0.00     0.010 C 
BRANCH   6   7
HETATM    7  C   UNL     1       5.281   9.813  -2.820  1.00  0.00     0.001 C 
BRANCH   7   8
HETATM    8  C   UNL     1       6.530  10.642  -3.144  1.00  0.00     0.000 C 
BRANCH   8   9
HETATM    9  C   UNL     1       6.643  11.854  -2.215  1.00  0.00     0.000 C 
BRANCH   9  10
HETATM   10  C   UNL     1       6.154  11.514  -0.801  1.00  0.00     0.004 C 
BRANCH  10  11
HETATM   11  C   UNL     1       5.239  12.620  -0.262  1.00  0.00     0.027 C 
BRANCH  11  12
HETATM   12  C   UNL     1       4.306  13.142  -1.323  1.00  0.00    -0.030 C 
HETATM   13  C   UNL     1       3.102  12.632  -1.637  1.00  0.00    -0.027 C 
BRANCH  13  14
HETATM   14  C   UNL     1       2.459  11.411  -1.027  1.00  0.00     0.053 C 
BRANCH  14  15
HETATM   15  C   UNL     1       1.749  11.791   0.251  1.00  0.00    -0.027 C 
HETATM   16  C   UNL     1       2.067  11.415   1.505  1.00  0.00    -0.030 C 
BRANCH  16  17
HETATM   17  C   UNL     1       3.196  10.508   1.931  1.00  0.00     0.027 C 
BRANCH  17  18
HETATM   18  C   UNL     1       2.656   9.146   2.382  1.00  0.00     0.004 C 
BRANCH  18  19
HETATM   19  C   UNL     1       3.487   8.006   1.782  1.00  0.00    -0.000 C 
BRANCH  19  20
HETATM   20  C   UNL     1       4.056   8.393   0.412  1.00  0.00    -0.005 C 
HETATM   21  C   UNL     1       3.368   7.617  -0.707  1.00  0.00     0.005 C 
ENDBRANCH  19  20
ENDBRANCH  18  19
ENDBRANCH  17  18
ENDBRANCH  16  17
ENDBRANCH  14  15
ENDBRANCH  13  14
ENDBRANCH  11  12
ENDBRANCH  10  11
ENDBRANCH   9  10
ENDBRANCH   8   9
ENDBRANCH   7   8
ENDBRANCH   6   7
ENDBRANCH   5   6
ENDBRANCH   3   5
ENDBRANCH   1   3
TORSDOF 15
ENDMDL
MODEL 10
REMARK VINA RESULT:      -4.0     23.872     26.230
REMARK  15 active torsions:
REMARK  status: ('A' for Active; 'I' for Inactive)
REMARK    1  A    between atoms: O_1  and  C_18 
REMARK    2  A    between atoms: C_3  and  C_4 
REMARK    3  A    between atoms: C_3  and  C_5 
REMARK    4  A    between atoms: C_4  and  C_6 
REMARK    5  A    between atoms: C_5  and  C_7 
REMARK    6  A    between atoms: C_6  and  C_8 
REMARK    7  A    between atoms: C_7  and  C_9 
REMARK    8  A    between atoms: C_8  and  C_12 
REMARK    9  A    between atoms: C_9  and  C_18 
REMARK   10  A    between atoms: C_10  and  C_11 
REMARK   11  A    between atoms: C_10  and  C_13 
REMARK   12  A    between atoms: C_11  and  C_14 
REMARK   13  A    between atoms: C_13  and  C_17 
REMARK   14  A    between atoms: C_15  and  C_16 
REMARK   15  A    between atoms: C_16  and  C_19 
ROOT
HETATM    1  O   UNL     1      14.299  -9.107 -19.039  1.00  0.00    -0.776 OA
HETATM    2  H   UNL     1      13.631  -8.423 -18.891  1.00  0.00     0.167 HD
ENDROOT
BRANCH   1   3
HETATM    3  C   UNL     1      14.954  -9.209 -20.215  1.00  0.00     0.139 C 
HETATM    4  O   UNL     1      16.044  -9.762 -20.258  1.00  0.00    -0.650 OA
BRANCH   3   5
HETATM    5  C   UNL     1      14.322  -8.632 -21.456  1.00  0.00     0.110 C 
BRANCH   5   6
HETATM    6  C   UNL     1      15.208  -8.765 -22.701  1.00  0.00     0.010 C 
BRANCH   6   7
HETATM    7  C   UNL     1      14.372  -9.096 -23.942  1.00  0.00     0.001 C 
BRANCH   7   8
HETATM    8  C   UNL     1      15.088  -8.651 -25.223  1.00  0.00     0.000 C 
BRANCH   8   9
HETATM    9  C   UNL     1      16.575  -8.393 -24.962  1.00  0.00     0.000 C 
BRANCH   9  10
HETATM   10  C   UNL     1      17.451  -9.133 -25.980  1.00  0.00     0.004 C 
BRANCH  10  11
HETATM   11  C   UNL     1      17.330 -10.652 -25.797  1.00  0.00     0.027 C 
BRANCH  11  12
HETATM   12  C   UNL     1      16.832 -11.328 -27.048  1.00  0.00    -0.030 C 
HETATM   13  C   UNL     1      17.590 -11.734 -28.082  1.00  0.00    -0.027 C 
BRANCH  13  14
HETATM   14  C   UNL     1      19.082 -11.557 -28.225  1.00  0.00     0.053 C 
BRANCH  14  15
HETATM   15  C   UNL     1      19.802 -12.602 -27.408  1.00  0.00    -0.027 C 
HETATM   16  C   UNL     1      20.020 -13.891 -27.737  1.00  0.00    -0.030 C 
BRANCH  16  17
HETATM   17  C   UNL     1      19.577 -14.602 -28.993  1.00  0.00     0.027 C 
BRANCH  17  18
HETATM   18  C   UNL     1      18.859 -15.910 -28.649  1.00  0.00     0.004 C 
BRANCH  18  19
HETATM   19  C   UNL     1      17.782 -15.676 -27.583  1.00  0.00    -0.000 C 
BRANCH  19  20
HETATM   20  C   UNL     1      16.404 -15.466 -28.221  1.00  0.00    -0.005 C 
HETATM   21  C   UNL     1      15.470 -14.715 -27.276  1.00  0.00     0.005 C 
ENDBRANCH  19  20
ENDBRANCH  18  19
ENDBRANCH  17  18
ENDBRANCH  16  17
ENDBRANCH  14  15
ENDBRANCH  13  14
ENDBRANCH  11  12
ENDBRANCH  10  11
ENDBRANCH   9  10
ENDBRANCH   8   9
ENDBRANCH   7   8
ENDBRANCH   6   7
ENDBRANCH   5   6
ENDBRANCH   3   5
ENDBRANCH   1   3
TORSDOF 15
ENDMDL
MODEL 11
REMARK VINA RESULT:      -4.0      3.785      7.389
REMARK  15 active torsions:
REMARK  status: ('A' for Active; 'I' for Inactive)
REMARK    1  A    between atoms: O_1  and  C_18 
REMARK    2  A    between atoms: C_3  and  C_4 
REMARK    3  A    between atoms: C_3  and  C_5 
REMARK    4  A    between atoms: C_4  and  C_6 
REMARK    5  A    between atoms: C_5  and  C_7 
REMARK    6  A    between atoms: C_6  and  C_8 
REMARK    7  A    between atoms: C_7  and  C_9 
REMARK    8  A    between atoms: C_8  and  C_12 
REMARK    9  A    between atoms: C_9  and  C_18 
REMARK   10  A    between atoms: C_10  and  C_11 
REMARK   11  A    between atoms: C_10  and  C_13 
REMARK   12  A    between atoms: C_11  and  C_14 
REMARK   13  A    between atoms: C_13  and  C_17 
REMARK   14  A    between atoms: C_15  and  C_16 
REMARK   15  A    between atoms: C_16  and  C_19 
ROOT
HETATM    1  O   UNL     1      30.026  12.181 -18.755  1.00  0.00    -0.776 OA
HETATM    2  H   UNL     1      30.590  12.517 -19.466  1.00  0.00     0.167 HD
ENDROOT
BRANCH   1   3
HETATM    3  C   UNL     1      29.311  11.046 -18.901  1.00  0.00     0.139 C 
HETATM    4  O   UNL     1      28.661  10.612 -17.960  1.00  0.00    -0.650 OA
BRANCH   3   5
HETATM    5  C   UNL     1      29.334  10.333 -20.229  1.00  0.00     0.110 C 
BRANCH   5   6
HETATM    6  C   UNL     1      30.604   9.499 -20.442  1.00  0.00     0.010 C 
BRANCH   6   7
HETATM    7  C   UNL     1      30.436   8.082 -19.882  1.00  0.00     0.001 C 
BRANCH   7   8
HETATM    8  C   UNL     1      31.784   7.355 -19.810  1.00  0.00     0.000 C 
BRANCH   8   9
HETATM    9  C   UNL     1      32.921   8.249 -20.314  1.00  0.00     0.000 C 
BRANCH   9  10
HETATM   10  C   UNL     1      34.218   7.979 -19.542  1.00  0.00     0.004 C 
BRANCH  10  11
HETATM   11  C   UNL     1      33.921   7.692 -18.065  1.00  0.00     0.027 C 
BRANCH  11  12
HETATM   12  C   UNL     1      34.411   8.800 -17.170  1.00  0.00    -0.030 C 
HETATM   13  C   UNL     1      33.674   9.822 -16.700  1.00  0.00    -0.027 C 
BRANCH  13  14
HETATM   14  C   UNL     1      32.222  10.096 -17.009  1.00  0.00     0.053 C 
BRANCH  14  15
HETATM   15  C   UNL     1      31.385   9.874 -15.772  1.00  0.00    -0.027 C 
HETATM   16  C   UNL     1      30.710   8.759 -15.431  1.00  0.00    -0.030 C 
BRANCH  16  17
HETATM   17  C   UNL     1      30.612   7.472 -16.213  1.00  0.00     0.027 C 
BRANCH  17  18
HETATM   18  C   UNL     1      31.683   6.477 -15.753  1.00  0.00     0.004 C 
BRANCH  18  19
HETATM   19  C   UNL     1      31.071   5.400 -14.848  1.00  0.00    -0.000 C 
BRANCH  19  20
HETATM   20  C   UNL     1      31.081   5.838 -13.379  1.00  0.00    -0.005 C 
HETATM   21  C   UNL     1      32.136   5.071 -12.586  1.00  0.00     0.005 C 
ENDBRANCH  19  20
ENDBRANCH  18  19
ENDBRANCH  17  18
ENDBRANCH  16  17
ENDBRANCH  14  15
ENDBRANCH  13  14
ENDBRANCH  11  12
ENDBRANCH  10  11
ENDBRANCH   9  10
ENDBRANCH   8   9
ENDBRANCH   7   8
ENDBRANCH   6   7
ENDBRANCH   5   6
ENDBRANCH   3   5
ENDBRANCH   1   3
TORSDOF 15
ENDMDL
MODEL 12
REMARK VINA RESULT:      -3.9      4.038      6.109
REMARK  15 active torsions:
REMARK  status: ('A' for Active; 'I' for Inactive)
REMARK    1  A    between atoms: O_1  and  C_18 
REMARK    2  A    between atoms: C_3  and  C_4 
REMARK    3  A    between atoms: C_3  and  C_5 
REMARK    4  A    between atoms: C_4  and  C_6 
REMARK    5  A    between atoms: C_5  and  C_7 
REMARK    6  A    between atoms: C_6  and  C_8 
REMARK    7  A    between atoms: C_7  and  C_9 
REMARK    8  A    between atoms: C_8  and  C_12 
REMARK    9  A    between atoms: C_9  and  C_18 
REMARK   10  A    between atoms: C_10  and  C_11 
REMARK   11  A    between atoms: C_10  and  C_13 
REMARK   12  A    between atoms: C_11  and  C_14 
REMARK   13  A    between atoms: C_13  and  C_17 
REMARK   14  A    between atoms: C_15  and  C_16 
REMARK   15  A    between atoms: C_16  and  C_19 
ROOT
HETATM    1  O   UNL     1      34.135   8.513  -4.116  1.00  0.00    -0.776 OA
HETATM    2  H   UNL     1      33.983   9.456  -3.962  1.00  0.00     0.167 HD
ENDROOT
BRANCH   1   3
HETATM    3  C   UNL     1      33.182   7.726  -4.657  1.00  0.00     0.139 C 
HETATM    4  O   UNL     1      33.120   6.545  -4.346  1.00  0.00    -0.650 OA
BRANCH   3   5
HETATM    5  C   UNL     1      32.211   8.325  -5.642  1.00  0.00     0.110 C 
BRANCH   5   6
HETATM    6  C   UNL     1      32.517   7.946  -7.097  1.00  0.00     0.010 C 
BRANCH   6   7
HETATM    7  C   UNL     1      31.228   7.679  -7.882  1.00  0.00     0.001 C 
BRANCH   7   8
HETATM    8  C   UNL     1      31.081   8.662  -9.049  1.00  0.00     0.000 C 
BRANCH   8   9
HETATM    9  C   UNL     1      30.152   8.101 -10.130  1.00  0.00     0.000 C 
BRANCH   9  10
HETATM   10  C   UNL     1      30.828   8.127 -11.507  1.00  0.00     0.004 C 
BRANCH  10  11
HETATM   11  C   UNL     1      30.746   6.750 -12.178  1.00  0.00     0.027 C 
BRANCH  11  12
HETATM   12  C   UNL     1      30.928   5.632 -11.185  1.00  0.00    -0.030 C 
HETATM   13  C   UNL     1      32.104   5.173 -10.718  1.00  0.00    -0.027 C 
BRANCH  13  14
HETATM   14  C   UNL     1      33.477   5.649 -11.125  1.00  0.00     0.053 C 
BRANCH  14  15
HETATM   15  C   UNL     1      33.964   6.696 -10.153  1.00  0.00    -0.027 C 
HETATM   16  C   UNL     1      34.580   7.859 -10.444  1.00  0.00    -0.030 C 
BRANCH  16  17
HETATM   17  C   UNL     1      34.948   8.382 -11.812  1.00  0.00     0.027 C 
BRANCH  17  18
HETATM   18  C   UNL     1      33.816   9.242 -12.384  1.00  0.00     0.004 C 
BRANCH  18  19
HETATM   19  C   UNL     1      33.739   9.095 -13.909  1.00  0.00    -0.000 C 
BRANCH  19  20
HETATM   20  C   UNL     1      33.707   7.620 -14.324  1.00  0.00    -0.005 C 
HETATM   21  C   UNL     1      34.516   7.390 -15.597  1.00  0.00     0.005 C 
ENDBRANCH  19  20
ENDBRANCH  18  19
ENDBRANCH  17  18
ENDBRANCH  16  17
ENDBRANCH  14  15
ENDBRANCH  13  14
ENDBRANCH  11  12
ENDBRANCH  10  11
ENDBRANCH   9  10
ENDBRANCH   8   9
ENDBRANCH   7   8
ENDBRANCH   6   7
ENDBRANCH   5   6
ENDBRANCH   3   5
ENDBRANCH   1   3
TORSDOF 15
ENDMDL
MODEL 13
REMARK VINA RESULT:      -3.9     47.661     49.625
REMARK  15 active torsions:
REMARK  status: ('A' for Active; 'I' for Inactive)
REMARK    1  A    between atoms: O_1  and  C_18 
REMARK    2  A    between atoms: C_3  and  C_4 
REMARK    3  A    between atoms: C_3  and  C_5 
REMARK    4  A    between atoms: C_4  and  C_6 
REMARK    5  A    between atoms: C_5  and  C_7 
REMARK    6  A    between atoms: C_6  and  C_8 
REMARK    7  A    between atoms: C_7  and  C_9 
REMARK    8  A    between atoms: C_8  and  C_12 
REMARK    9  A    between atoms: C_9  and  C_18 
REMARK   10  A    between atoms: C_10  and  C_11 
REMARK   11  A    between atoms: C_10  and  C_13 
REMARK   12  A    between atoms: C_11  and  C_14 
REMARK   13  A    between atoms: C_13  and  C_17 
REMARK   14  A    between atoms: C_15  and  C_16 
REMARK   15  A    between atoms: C_16  and  C_19 
ROOT
HETATM    1  O   UNL     1     -19.853  13.620 -10.254  1.00  0.00    -0.776 OA
HETATM    2  H   UNL     1     -19.740  13.387  -9.322  1.00  0.00     0.167 HD
ENDROOT
BRANCH   1   3
HETATM    3  C   UNL     1     -20.135  12.684 -11.184  1.00  0.00     0.139 C 
HETATM    4  O   UNL     1     -20.400  11.542 -10.836  1.00  0.00    -0.650 OA
BRANCH   3   5
HETATM    5  C   UNL     1     -20.114  13.071 -12.640  1.00  0.00     0.110 C 
BRANCH   5   6
HETATM    6  C   UNL     1     -19.539  11.974 -13.546  1.00  0.00     0.010 C 
BRANCH   6   7
HETATM    7  C   UNL     1     -18.009  12.046 -13.599  1.00  0.00     0.001 C 
BRANCH   7   8
HETATM    8  C   UNL     1     -17.513  12.157 -15.046  1.00  0.00     0.000 C 
BRANCH   8   9
HETATM    9  C   UNL     1     -16.385  11.158 -15.321  1.00  0.00     0.000 C 
BRANCH   9  10
HETATM   10  C   UNL     1     -15.013  11.839 -15.238  1.00  0.00     0.004 C 
BRANCH  10  11
HETATM   11  C   UNL     1     -13.887  10.815 -15.429  1.00  0.00     0.027 C 
BRANCH  11  12
HETATM   12  C   UNL     1     -12.803  10.975 -14.396  1.00  0.00    -0.030 C 
HETATM   13  C   UNL     1     -12.814  10.464 -13.151  1.00  0.00    -0.027 C 
BRANCH  13  14
HETATM   14  C   UNL     1     -13.929   9.666 -12.520  1.00  0.00     0.053 C 
BRANCH  14  15
HETATM   15  C   UNL     1     -13.743   9.623 -11.023  1.00  0.00    -0.027 C 
HETATM   16  C   UNL     1     -14.152  10.538 -10.122  1.00  0.00    -0.030 C 
BRANCH  16  17
HETATM   17  C   UNL     1     -14.874  11.835 -10.396  1.00  0.00     0.027 C 
BRANCH  17  18
HETATM   18  C   UNL     1     -16.385  11.602 -10.497  1.00  0.00     0.004 C 
BRANCH  18  19
HETATM   19  C   UNL     1     -17.067  11.863  -9.148  1.00  0.00    -0.000 C 
BRANCH  19  20
HETATM   20  C   UNL     1     -17.736  10.594  -8.608  1.00  0.00    -0.005 C 
HETATM   21  C   UNL     1     -16.843   9.894  -7.588  1.00  0.00     0.005 C 
ENDBRANCH  19  20
ENDBRANCH  18  19
ENDBRANCH  17  18
ENDBRANCH  16  17
ENDBRANCH  14  15
ENDBRANCH  13  14
ENDBRANCH  11  12
ENDBRANCH  10  11
ENDBRANCH   9  10
ENDBRANCH   8   9
ENDBRANCH   7   8
ENDBRANCH   6   7
ENDBRANCH   5   6
ENDBRANCH   3   5
ENDBRANCH   1   3
TORSDOF 15
ENDMDL
MODEL 14
REMARK VINA RESULT:      -3.9     49.651     51.667
REMARK  15 active torsions:
REMARK  status: ('A' for Active; 'I' for Inactive)
REMARK    1  A    between atoms: O_1  and  C_18 
REMARK    2  A    between atoms: C_3  and  C_4 
REMARK    3  A    between atoms: C_3  and  C_5 
REMARK    4  A    between atoms: C_4  and  C_6 
REMARK    5  A    between atoms: C_5  and  C_7 
REMARK    6  A    between atoms: C_6  and  C_8 
REMARK    7  A    between atoms: C_7  and  C_9 
REMARK    8  A    between atoms: C_8  and  C_12 
REMARK    9  A    between atoms: C_9  and  C_18 
REMARK   10  A    between atoms: C_10  and  C_11 
REMARK   11  A    between atoms: C_10  and  C_13 
REMARK   12  A    between atoms: C_11  and  C_14 
REMARK   13  A    between atoms: C_13  and  C_17 
REMARK   14  A    between atoms: C_15  and  C_16 
REMARK   15  A    between atoms: C_16  and  C_19 
ROOT
HETATM    1  O   UNL     1     -20.320  10.544 -19.181  1.00  0.00    -0.776 OA
HETATM    2  H   UNL     1     -19.531  10.084 -19.499  1.00  0.00     0.167 HD
ENDROOT
BRANCH   1   3
HETATM    3  C   UNL     1     -20.467  11.877 -19.331  1.00  0.00     0.139 C 
HETATM    4  O   UNL     1     -21.342  12.313 -20.065  1.00  0.00    -0.650 OA
BRANCH   3   5
HETATM    5  C   UNL     1     -19.540  12.803 -18.586  1.00  0.00     0.110 C 
BRANCH   5   6
HETATM    6  C   UNL     1     -19.281  12.360 -17.140  1.00  0.00     0.010 C 
BRANCH   6   7
HETATM    7  C   UNL     1     -20.104  13.194 -16.151  1.00  0.00     0.001 C 
BRANCH   7   8
HETATM    8  C   UNL     1     -19.496  13.135 -14.744  1.00  0.00     0.000 C 
BRANCH   8   9
HETATM    9  C   UNL     1     -18.046  12.644 -14.789  1.00  0.00     0.000 C 
BRANCH   9  10
HETATM   10  C   UNL     1     -17.756  11.674 -13.637  1.00  0.00     0.004 C 
BRANCH  10  11
HETATM   11  C   UNL     1     -16.245  11.530 -13.417  1.00  0.00     0.027 C 
BRANCH  11  12
HETATM   12  C   UNL     1     -15.897  10.219 -12.763  1.00  0.00    -0.030 C 
HETATM   13  C   UNL     1     -15.332  10.064 -11.551  1.00  0.00    -0.027 C 
BRANCH  13  14
HETATM   14  C   UNL     1     -14.891  11.168 -10.621  1.00  0.00     0.053 C 
BRANCH  14  15
HETATM   15  C   UNL     1     -15.698  11.118  -9.347  1.00  0.00    -0.027 C 
HETATM   16  C   UNL     1     -16.874  11.728  -9.099  1.00  0.00    -0.030 C 
BRANCH  16  17
HETATM   17  C   UNL     1     -17.655  12.623 -10.030  1.00  0.00     0.027 C 
BRANCH  17  18
HETATM   18  C   UNL     1     -19.132  12.671  -9.624  1.00  0.00     0.004 C 
BRANCH  18  19
HETATM   19  C   UNL     1     -19.985  13.279 -10.743  1.00  0.00    -0.000 C 
BRANCH  19  20
HETATM   20  C   UNL     1     -20.809  12.204 -11.461  1.00  0.00    -0.005 C 
HETATM   21  C   UNL     1     -21.035  10.993 -10.560  1.00  0.00     0.005 C 
ENDBRANCH  19  20
ENDBRANCH  18  19
ENDBRANCH  17  18
ENDBRANCH  16  17
ENDBRANCH  14  15
ENDBRANCH  13  14
ENDBRANCH  11  12
ENDBRANCH  10  11
ENDBRANCH   9  10
ENDBRANCH   8   9
ENDBRANCH   7   8
ENDBRANCH   6   7
ENDBRANCH   5   6
ENDBRANCH   3   5
ENDBRANCH   1   3
TORSDOF 15
ENDMDL
MODEL 15
REMARK VINA RESULT:      -3.9     47.947     49.932
REMARK  15 active torsions:
REMARK  status: ('A' for Active; 'I' for Inactive)
REMARK    1  A    between atoms: O_1  and  C_18 
REMARK    2  A    between atoms: C_3  and  C_4 
REMARK    3  A    between atoms: C_3  and  C_5 
REMARK    4  A    between atoms: C_4  and  C_6 
REMARK    5  A    between atoms: C_5  and  C_7 
REMARK    6  A    between atoms: C_6  and  C_8 
REMARK    7  A    between atoms: C_7  and  C_9 
REMARK    8  A    between atoms: C_8  and  C_12 
REMARK    9  A    between atoms: C_9  and  C_18 
REMARK   10  A    between atoms: C_10  and  C_11 
REMARK   11  A    between atoms: C_10  and  C_13 
REMARK   12  A    between atoms: C_11  and  C_14 
REMARK   13  A    between atoms: C_13  and  C_17 
REMARK   14  A    between atoms: C_15  and  C_16 
REMARK   15  A    between atoms: C_16  and  C_19 
ROOT
HETATM    1  O   UNL     1     -13.193   7.630 -11.753  1.00  0.00    -0.776 OA
HETATM    2  H   UNL     1     -13.869   6.955 -11.905  1.00  0.00     0.167 HD
ENDROOT
BRANCH   1   3
HETATM    3  C   UNL     1     -13.431   8.699 -10.965  1.00  0.00     0.139 C 
HETATM    4  O   UNL     1     -12.790   8.849  -9.934  1.00  0.00    -0.650 OA
BRANCH   3   5
HETATM    5  C   UNL     1     -14.490   9.689 -11.376  1.00  0.00     0.110 C 
BRANCH   5   6
HETATM    6  C   UNL     1     -15.860   9.039 -11.617  1.00  0.00     0.010 C 
BRANCH   6   7
HETATM    7  C   UNL     1     -16.743   9.925 -12.503  1.00  0.00     0.001 C 
BRANCH   7   8
HETATM    8  C   UNL     1     -15.935  11.080 -13.106  1.00  0.00     0.000 C 
BRANCH   8   9
HETATM    9  C   UNL     1     -16.263  11.265 -14.591  1.00  0.00     0.000 C 
BRANCH   9  10
HETATM   10  C   UNL     1     -17.135  12.507 -14.813  1.00  0.00     0.004 C 
BRANCH  10  11
HETATM   11  C   UNL     1     -18.591  12.106 -15.083  1.00  0.00     0.027 C 
BRANCH  11  12
HETATM   12  C   UNL     1     -19.552  13.202 -14.707  1.00  0.00    -0.030 C 
HETATM   13  C   UNL     1     -20.150  13.354 -13.511  1.00  0.00    -0.027 C 
BRANCH  13  14
HETATM   14  C   UNL     1     -20.017  12.436 -12.320  1.00  0.00     0.053 C 
BRANCH  14  15
HETATM   15  C   UNL     1     -19.979  13.250 -11.049  1.00  0.00    -0.027 C 
HETATM   16  C   UNL     1     -19.124  13.112 -10.016  1.00  0.00    -0.030 C 
BRANCH  16  17
HETATM   17  C   UNL     1     -18.014  12.100  -9.875  1.00  0.00     0.027 C 
BRANCH  17  18
HETATM   18  C   UNL     1     -17.810  11.722  -8.404  1.00  0.00     0.004 C 
BRANCH  18  19
HETATM   19  C   UNL     1     -16.406  11.147  -8.179  1.00  0.00    -0.000 C 
BRANCH  19  20
HETATM   20  C   UNL     1     -16.437   9.616  -8.105  1.00  0.00    -0.005 C 
HETATM   21  C   UNL     1     -15.163   9.072  -7.465  1.00  0.00     0.005 C 
ENDBRANCH  19  20
ENDBRANCH  18  19
ENDBRANCH  17  18
ENDBRANCH  16  17
ENDBRANCH  14  15
ENDBRANCH  13  14
ENDBRANCH  11  12
ENDBRANCH  10  11
ENDBRANCH   9  10
ENDBRANCH   8   9
ENDBRANCH   7   8
ENDBRANCH   6   7
ENDBRANCH   5   6
ENDBRANCH   3   5
ENDBRANCH   1   3
TORSDOF 15
ENDMDL
MODEL 16
REMARK VINA RESULT:      -3.9      2.867      4.549
REMARK  15 active torsions:
REMARK  status: ('A' for Active; 'I' for Inactive)
REMARK    1  A    between atoms: O_1  and  C_18 
REMARK    2  A    between atoms: C_3  and  C_4 
REMARK    3  A    between atoms: C_3  and  C_5 
REMARK    4  A    between atoms: C_4  and  C_6 
REMARK    5  A    between atoms: C_5  and  C_7 
REMARK    6  A    between atoms: C_6  and  C_8 
REMARK    7  A    between atoms: C_7  and  C_9 
REMARK    8  A    between atoms: C_8  and  C_12 
REMARK    9  A    between atoms: C_9  and  C_18 
REMARK   10  A    between atoms: C_10  and  C_11 
REMARK   11  A    between atoms: C_10  and  C_13 
REMARK   12  A    between atoms: C_11  and  C_14 
REMARK   13  A    between atoms: C_13  and  C_17 
REMARK   14  A    between atoms: C_15  and  C_16 
REMARK   15  A    between atoms: C_16  and  C_19 
ROOT
HETATM    1  O   UNL     1      31.666  12.420 -11.488  1.00  0.00    -0.776 OA
HETATM    2  H   UNL     1      31.386  13.288 -11.810  1.00  0.00     0.167 HD
ENDROOT
BRANCH   1   3
HETATM    3  C   UNL     1      31.527  11.310 -12.243  1.00  0.00     0.139 C 
HETATM    4  O   UNL     1      30.433  11.023 -12.707  1.00  0.00    -0.650 OA
BRANCH   3   5
HETATM    5  C   UNL     1      32.734  10.443 -12.497  1.00  0.00     0.110 C 
BRANCH   5   6
HETATM    6  C   UNL     1      33.521  10.119 -11.220  1.00  0.00     0.010 C 
BRANCH   6   7
HETATM    7  C   UNL     1      34.776   9.298 -11.538  1.00  0.00     0.001 C 
BRANCH   7   8
HETATM    8  C   UNL     1      34.740   7.940 -10.828  1.00  0.00     0.000 C 
BRANCH   8   9
HETATM    9  C   UNL     1      33.613   7.889  -9.791  1.00  0.00     0.000 C 
BRANCH   9  10
HETATM   10  C   UNL     1      32.941   6.511  -9.774  1.00  0.00     0.004 C 
BRANCH  10  11
HETATM   11  C   UNL     1      31.415   6.650  -9.833  1.00  0.00     0.027 C 
BRANCH  11  12
HETATM   12  C   UNL     1      30.976   7.496 -10.999  1.00  0.00    -0.030 C 
HETATM   13  C   UNL     1      31.095   7.175 -12.300  1.00  0.00    -0.027 C 
BRANCH  13  14
HETATM   14  C   UNL     1      31.733   5.926 -12.859  1.00  0.00     0.053 C 
BRANCH  14  15
HETATM   15  C   UNL     1      30.943   5.437 -14.049  1.00  0.00    -0.027 C 
HETATM   16  C   UNL     1      30.990   5.907 -15.311  1.00  0.00    -0.030 C 
BRANCH  16  17
HETATM   17  C   UNL     1      31.829   7.049 -15.832  1.00  0.00     0.027 C 
BRANCH  17  18
HETATM   18  C   UNL     1      33.014   6.521 -16.647  1.00  0.00     0.004 C 
BRANCH  18  19
HETATM   19  C   UNL     1      34.339   6.806 -15.928  1.00  0.00    -0.000 C 
BRANCH  19  20
HETATM   20  C   UNL     1      34.172   7.903 -14.870  1.00  0.00    -0.005 C 
HETATM   21  C   UNL     1      34.883   9.185 -15.293  1.00  0.00     0.005 C 
ENDBRANCH  19  20
ENDBRANCH  18  19
ENDBRANCH  17  18
ENDBRANCH  16  17
ENDBRANCH  14  15
ENDBRANCH  13  14
ENDBRANCH  11  12
ENDBRANCH  10  11
ENDBRANCH   9  10
ENDBRANCH   8   9
ENDBRANCH   7   8
ENDBRANCH   6   7
ENDBRANCH   5   6
ENDBRANCH   3   5
ENDBRANCH   1   3
TORSDOF 15
ENDMDL
MODEL 17
REMARK VINA RESULT:      -3.9     38.375     40.055
REMARK  15 active torsions:
REMARK  status: ('A' for Active; 'I' for Inactive)
REMARK    1  A    between atoms: O_1  and  C_18 
REMARK    2  A    between atoms: C_3  and  C_4 
REMARK    3  A    between atoms: C_3  and  C_5 
REMARK    4  A    between atoms: C_4  and  C_6 
REMARK    5  A    between atoms: C_5  and  C_7 
REMARK    6  A    between atoms: C_6  and  C_8 
REMARK    7  A    between atoms: C_7  and  C_9 
REMARK    8  A    between atoms: C_8  and  C_12 
REMARK    9  A    between atoms: C_9  and  C_18 
REMARK   10  A    between atoms: C_10  and  C_11 
REMARK   11  A    between atoms: C_10  and  C_13 
REMARK   12  A    between atoms: C_11  and  C_14 
REMARK   13  A    between atoms: C_13  and  C_17 
REMARK   14  A    between atoms: C_15  and  C_16 
REMARK   15  A    between atoms: C_16  and  C_19 
ROOT
HETATM    1  O   UNL     1      -1.995  21.321 -17.986  1.00  0.00    -0.776 OA
HETATM    2  H   UNL     1      -1.368  22.002 -18.269  1.00  0.00     0.167 HD
ENDROOT
BRANCH   1   3
HETATM    3  C   UNL     1      -1.575  20.151 -17.461  1.00  0.00     0.139 C 
HETATM    4  O   UNL     1      -0.447  19.746 -17.705  1.00  0.00    -0.650 OA
BRANCH   3   5
HETATM    5  C   UNL     1      -2.513  19.365 -16.582  1.00  0.00     0.110 C 
BRANCH   5   6
HETATM    6  C   UNL     1      -3.775  18.894 -17.318  1.00  0.00     0.010 C 
BRANCH   6   7
HETATM    7  C   UNL     1      -5.000  19.712 -16.894  1.00  0.00     0.001 C 
BRANCH   7   8
HETATM    8  C   UNL     1      -5.598  19.172 -15.590  1.00  0.00     0.000 C 
BRANCH   8   9
HETATM    9  C   UNL     1      -7.113  18.983 -15.713  1.00  0.00     0.000 C 
BRANCH   9  10
HETATM   10  C   UNL     1      -7.691  18.322 -14.456  1.00  0.00     0.004 C 
BRANCH  10  11
HETATM   11  C   UNL     1      -7.902  16.819 -14.681  1.00  0.00     0.027 C 
BRANCH  11  12
HETATM   12  C   UNL     1      -6.705  16.015 -14.246  1.00  0.00    -0.030 C 
HETATM   13  C   UNL     1      -6.059  15.094 -14.984  1.00  0.00    -0.027 C 
BRANCH  13  14
HETATM   14  C   UNL     1      -6.426  14.646 -16.378  1.00  0.00     0.053 C 
BRANCH  14  15
HETATM   15  C   UNL     1      -5.712  15.502 -17.396  1.00  0.00    -0.027 C 
HETATM   16  C   UNL     1      -6.263  16.378 -18.259  1.00  0.00    -0.030 C 
BRANCH  16  17
HETATM   17  C   UNL     1      -7.729  16.697 -18.429  1.00  0.00     0.027 C 
BRANCH  17  18
HETATM   18  C   UNL     1      -7.956  17.547 -19.683  1.00  0.00     0.004 C 
BRANCH  18  19
HETATM   19  C   UNL     1      -7.588  19.013 -19.421  1.00  0.00    -0.000 C 
BRANCH  19  20
HETATM   20  C   UNL     1      -6.482  19.487 -20.371  1.00  0.00    -0.005 C 
HETATM   21  C   UNL     1      -6.187  18.435 -21.436  1.00  0.00     0.005 C 
ENDBRANCH  19  20
ENDBRANCH  18  19
ENDBRANCH  17  18
ENDBRANCH  16  17
ENDBRANCH  14  15
ENDBRANCH  13  14
ENDBRANCH  11  12
ENDBRANCH  10  11
ENDBRANCH   9  10
ENDBRANCH   8   9
ENDBRANCH   7   8
ENDBRANCH   6   7
ENDBRANCH   5   6
ENDBRANCH   3   5
ENDBRANCH   1   3
TORSDOF 15
ENDMDL
MODEL 18
REMARK VINA RESULT:      -3.9      3.727      4.910
REMARK  15 active torsions:
REMARK  status: ('A' for Active; 'I' for Inactive)
REMARK    1  A    between atoms: O_1  and  C_18 
REMARK    2  A    between atoms: C_3  and  C_4 
REMARK    3  A    between atoms: C_3  and  C_5 
REMARK    4  A    between atoms: C_4  and  C_6 
REMARK    5  A    between atoms: C_5  and  C_7 
REMARK    6  A    between atoms: C_6  and  C_8 
REMARK    7  A    between atoms: C_7  and  C_9 
REMARK    8  A    between atoms: C_8  and  C_12 
REMARK    9  A    between atoms: C_9  and  C_18 
REMARK   10  A    between atoms: C_10  and  C_11 
REMARK   11  A    between atoms: C_10  and  C_13 
REMARK   12  A    between atoms: C_11  and  C_14 
REMARK   13  A    between atoms: C_13  and  C_17 
REMARK   14  A    between atoms: C_15  and  C_16 
REMARK   15  A    between atoms: C_16  and  C_19 
ROOT
HETATM    1  O   UNL     1      31.150  10.327 -10.511  1.00  0.00    -0.776 OA
HETATM    2  H   UNL     1      30.549   9.896 -11.134  1.00  0.00     0.167 HD
ENDROOT
BRANCH   1   3
HETATM    3  C   UNL     1      31.262  11.671 -10.457  1.00  0.00     0.139 C 
HETATM    4  O   UNL     1      31.838  12.196  -9.514  1.00  0.00    -0.650 OA
BRANCH   3   5
HETATM    5  C   UNL     1      30.666  12.499 -11.566  1.00  0.00     0.110 C 
BRANCH   5   6
HETATM    6  C   UNL     1      29.486  11.811 -12.264  1.00  0.00     0.010 C 
BRANCH   6   7
HETATM    7  C   UNL     1      29.638  11.863 -13.789  1.00  0.00     0.001 C 
BRANCH   7   8
HETATM    8  C   UNL     1      30.683  10.850 -14.273  1.00  0.00     0.000 C 
BRANCH   8   9
HETATM    9  C   UNL     1      30.065   9.459 -14.440  1.00  0.00     0.000 C 
BRANCH   9  10
HETATM   10  C   UNL     1      30.722   8.446 -13.494  1.00  0.00     0.004 C 
BRANCH  10  11
HETATM   11  C   UNL     1      31.617   7.475 -14.274  1.00  0.00     0.027 C 
BRANCH  11  12
HETATM   12  C   UNL     1      31.094   6.064 -14.219  1.00  0.00    -0.030 C 
HETATM   13  C   UNL     1      30.775   5.296 -15.276  1.00  0.00    -0.027 C 
BRANCH  13  14
HETATM   14  C   UNL     1      30.831   5.703 -16.728  1.00  0.00     0.053 C 
BRANCH  14  15
HETATM   15  C   UNL     1      32.050   5.099 -17.383  1.00  0.00    -0.027 C 
HETATM   16  C   UNL     1      32.837   5.661 -18.322  1.00  0.00    -0.030 C 
BRANCH  16  17
HETATM   17  C   UNL     1      32.676   7.020 -18.958  1.00  0.00     0.027 C 
BRANCH  17  18
HETATM   18  C   UNL     1      33.784   7.970 -18.490  1.00  0.00     0.004 C 
BRANCH  18  19
HETATM   19  C   UNL     1      33.308   8.820 -17.306  1.00  0.00    -0.000 C 
BRANCH  19  20
HETATM   20  C   UNL     1      34.392   8.923 -16.226  1.00  0.00    -0.005 C 
HETATM   21  C   UNL     1      34.852   7.540 -15.775  1.00  0.00     0.005 C 
ENDBRANCH  19  20
ENDBRANCH  18  19
ENDBRANCH  17  18
ENDBRANCH  16  17
ENDBRANCH  14  15
ENDBRANCH  13  14
ENDBRANCH  11  12
ENDBRANCH  10  11
ENDBRANCH   9  10
ENDBRANCH   8   9
ENDBRANCH   7   8
ENDBRANCH   6   7
ENDBRANCH   5   6
ENDBRANCH   3   5
ENDBRANCH   1   3
TORSDOF 15
ENDMDL
MODEL 19
REMARK VINA RESULT:      -3.8      7.910     11.179
REMARK  15 active torsions:
REMARK  status: ('A' for Active; 'I' for Inactive)
REMARK    1  A    between atoms: O_1  and  C_18 
REMARK    2  A    between atoms: C_3  and  C_4 
REMARK    3  A    between atoms: C_3  and  C_5 
REMARK    4  A    between atoms: C_4  and  C_6 
REMARK    5  A    between atoms: C_5  and  C_7 
REMARK    6  A    between atoms: C_6  and  C_8 
REMARK    7  A    between atoms: C_7  and  C_9 
REMARK    8  A    between atoms: C_8  and  C_12 
REMARK    9  A    between atoms: C_9  and  C_18 
REMARK   10  A    between atoms: C_10  and  C_11 
REMARK   11  A    between atoms: C_10  and  C_13 
REMARK   12  A    between atoms: C_11  and  C_14 
REMARK   13  A    between atoms: C_13  and  C_17 
REMARK   14  A    between atoms: C_15  and  C_16 
REMARK   15  A    between atoms: C_16  and  C_19 
ROOT
HETATM    1  O   UNL     1      35.159   3.680 -27.543  1.00  0.00    -0.776 OA
HETATM    2  H   UNL     1      35.690   2.911 -27.794  1.00  0.00     0.167 HD
ENDROOT
BRANCH   1   3
HETATM    3  C   UNL     1      35.734   4.859 -27.224  1.00  0.00     0.139 C 
HETATM    4  O   UNL     1      36.916   4.894 -26.913  1.00  0.00    -0.650 OA
BRANCH   3   5
HETATM    5  C   UNL     1      34.898   6.112 -27.257  1.00  0.00     0.110 C 
BRANCH   5   6
HETATM    6  C   UNL     1      35.484   7.249 -26.409  1.00  0.00     0.010 C 
BRANCH   6   7
HETATM    7  C   UNL     1      34.528   7.643 -25.277  1.00  0.00     0.001 C 
BRANCH   7   8
HETATM    8  C   UNL     1      33.299   6.725 -25.250  1.00  0.00     0.000 C 
BRANCH   8   9
HETATM    9  C   UNL     1      33.201   5.973 -23.919  1.00  0.00     0.000 C 
BRANCH   9  10
HETATM   10  C   UNL     1      31.782   5.438 -23.692  1.00  0.00     0.004 C 
BRANCH  10  11
HETATM   11  C   UNL     1      31.396   5.533 -22.211  1.00  0.00     0.027 C 
BRANCH  11  12
HETATM   12  C   UNL     1      32.306   4.705 -21.342  1.00  0.00    -0.030 C 
HETATM   13  C   UNL     1      33.084   5.165 -20.346  1.00  0.00    -0.027 C 
BRANCH  13  14
HETATM   14  C   UNL     1      33.242   6.606 -19.925  1.00  0.00     0.053 C 
BRANCH  14  15
HETATM   15  C   UNL     1      34.399   7.232 -20.667  1.00  0.00    -0.027 C 
HETATM   16  C   UNL     1      34.434   8.445 -21.252  1.00  0.00    -0.030 C 
BRANCH  16  17
HETATM   17  C   UNL     1      33.319   9.460 -21.325  1.00  0.00     0.027 C 
BRANCH  17  18
HETATM   18  C   UNL     1      32.647   9.428 -22.702  1.00  0.00     0.004 C 
BRANCH  18  19
HETATM   19  C   UNL     1      31.162   9.066 -22.574  1.00  0.00    -0.000 C 
BRANCH  19  20
HETATM   20  C   UNL     1      30.344   9.662 -23.726  1.00  0.00    -0.005 C 
HETATM   21  C   UNL     1      30.131   8.635 -24.835  1.00  0.00     0.005 C 
ENDBRANCH  19  20
ENDBRANCH  18  19
ENDBRANCH  17  18
ENDBRANCH  16  17
ENDBRANCH  14  15
ENDBRANCH  13  14
ENDBRANCH  11  12
ENDBRANCH  10  11
ENDBRANCH   9  10
ENDBRANCH   8   9
ENDBRANCH   7   8
ENDBRANCH   6   7
ENDBRANCH   5   6
ENDBRANCH   3   5
ENDBRANCH   1   3
TORSDOF 15
ENDMDL
MODEL 20
REMARK VINA RESULT:      -3.8      4.633      6.406
REMARK  15 active torsions:
REMARK  status: ('A' for Active; 'I' for Inactive)
REMARK    1  A    between atoms: O_1  and  C_18 
REMARK    2  A    between atoms: C_3  and  C_4 
REMARK    3  A    between atoms: C_3  and  C_5 
REMARK    4  A    between atoms: C_4  and  C_6 
REMARK    5  A    between atoms: C_5  and  C_7 
REMARK    6  A    between atoms: C_6  and  C_8 
REMARK    7  A    between atoms: C_7  and  C_9 
REMARK    8  A    between atoms: C_8  and  C_12 
REMARK    9  A    between atoms: C_9  and  C_18 
REMARK   10  A    between atoms: C_10  and  C_11 
REMARK   11  A    between atoms: C_10  and  C_13 
REMARK   12  A    between atoms: C_11  and  C_14 
REMARK   13  A    between atoms: C_13  and  C_17 
REMARK   14  A    between atoms: C_15  and  C_16 
REMARK   15  A    between atoms: C_16  and  C_19 
ROOT
HETATM    1  O   UNL     1      30.634  13.024 -11.813  1.00  0.00    -0.776 OA
HETATM    2  H   UNL     1      30.481  13.969 -11.955  1.00  0.00     0.167 HD
ENDROOT
BRANCH   1   3
HETATM    3  C   UNL     1      29.612  12.174 -11.574  1.00  0.00     0.139 C 
HETATM    4  O   UNL     1      28.679  12.111 -12.362  1.00  0.00    -0.650 OA
BRANCH   3   5
HETATM    5  C   UNL     1      29.645  11.321 -10.333  1.00  0.00     0.110 C 
BRANCH   5   6
HETATM    6  C   UNL     1      31.070  10.987  -9.870  1.00  0.00     0.010 C 
BRANCH   6   7
HETATM    7  C   UNL     1      31.196  11.097  -8.346  1.00  0.00     0.001 C 
BRANCH   7   8
HETATM    8  C   UNL     1      32.297  10.171  -7.817  1.00  0.00     0.000 C 
BRANCH   8   9
HETATM    9  C   UNL     1      33.060   9.507  -8.968  1.00  0.00     0.000 C 
BRANCH   9  10
HETATM   10  C   UNL     1      34.494  10.043  -9.060  1.00  0.00     0.004 C 
BRANCH  10  11
HETATM   11  C   UNL     1      35.177   9.548 -10.341  1.00  0.00     0.027 C 
BRANCH  11  12
HETATM   12  C   UNL     1      34.785   8.132 -10.673  1.00  0.00    -0.030 C 
HETATM   13  C   UNL     1      34.249   7.710 -11.832  1.00  0.00    -0.027 C 
BRANCH  13  14
HETATM   14  C   UNL     1      33.889   8.571 -13.018  1.00  0.00     0.053 C 
BRANCH  14  15
HETATM   15  C   UNL     1      32.650   9.377 -12.709  1.00  0.00    -0.027 C 
HETATM   16  C   UNL     1      31.367   8.981 -12.827  1.00  0.00    -0.030 C 
BRANCH  16  17
HETATM   17  C   UNL     1      30.862   7.645 -13.315  1.00  0.00     0.027 C 
BRANCH  17  18
HETATM   18  C   UNL     1      30.787   6.640 -12.161  1.00  0.00     0.004 C 
BRANCH  18  19
HETATM   19  C   UNL     1      30.536   7.358 -10.830  1.00  0.00    -0.000 C 
BRANCH  19  20
HETATM   20  C   UNL     1      31.153   6.587  -9.657  1.00  0.00    -0.005 C 
HETATM   21  C   UNL     1      31.854   5.321 -10.142  1.00  0.00     0.005 C 
ENDBRANCH  19  20
ENDBRANCH  18  19
ENDBRANCH  17  18
ENDBRANCH  16  17
ENDBRANCH  14  15
ENDBRANCH  13  14
ENDBRANCH  11  12
ENDBRANCH  10  11
ENDBRANCH   9  10
ENDBRANCH   8   9
ENDBRANCH   7   8
ENDBRANCH   6   7
ENDBRANCH   5   6
ENDBRANCH   3   5
ENDBRANCH   1   3
TORSDOF 15
ENDMDL
