MODEL 1
REMARK VINA RESULT:      -7.0      0.000      0.000
REMARK  2 active torsions:
REMARK  status: ('A' for Active; 'I' for Inactive)
REMARK    1  A    between atoms: N_3  and  C_15 
REMARK    2  A    between atoms: C_5  and  C_7 
ROOT
HETATM    1  S   UNL     1      31.699   5.113 -12.735  1.00  0.00    -0.069 SA
HETATM    2  N   UNL     1      30.971   7.499 -13.175  1.00  0.00    -0.344 N 
HETATM    3  C   UNL     1      30.992   7.319 -11.815  1.00  0.00     0.052 A 
HETATM    4  C   UNL     1      31.370   6.362 -13.840  1.00  0.00     0.087 A 
HETATM    5  C   UNL     1      31.373   6.054 -11.398  1.00  0.00     0.034 A 
HETATM    6  C   UNL     1      30.652   8.284 -10.852  1.00  0.00     0.031 A 
HETATM    7  C   UNL     1      31.442   5.692 -10.055  1.00  0.00     0.028 A 
HETATM    8  C   UNL     1      30.501   8.759 -13.769  1.00  0.00     0.157 C 
HETATM    9  C   UNL     1      31.109   6.654  -9.084  1.00  0.00    -0.061 A 
HETATM   10  C   UNL     1      30.715   7.947  -9.490  1.00  0.00     0.009 A 
HETATM   11  C   UNL     1      31.167   6.320  -7.624  1.00  0.00     0.048 C 
ENDROOT
BRANCH   4  12
HETATM   12  C   UNL     1      31.554   6.161 -15.313  1.00  0.00    -0.002 A 
HETATM   13  C   UNL     1      32.724   6.538 -15.997  1.00  0.00     0.016 A 
HETATM   14  C   UNL     1      32.863   6.312 -17.369  1.00  0.00     0.030 A 
HETATM   15  C   UNL     1      31.841   5.689 -18.116  1.00  0.00     0.029 A 
HETATM   16  C   UNL     1      30.678   5.291 -17.422  1.00  0.00     0.030 A 
HETATM   17  C   UNL     1      30.545   5.515 -16.049  1.00  0.00     0.016 A 
BRANCH  15  18
HETATM   18  N   UNL     1      31.983   5.455 -19.534  1.00  0.00    -0.390 N 
HETATM   19  C   UNL     1      33.303   5.398 -20.148  1.00  0.00     0.149 C 
HETATM   20  C   UNL     1      30.810   5.274 -20.378  1.00  0.00     0.149 C 
ENDBRANCH  15  18
ENDBRANCH   4  12
TORSDOF 2
ENDMDL
MODEL 2
REMARK VINA RESULT:      -7.0      1.398      1.844
REMARK  2 active torsions:
REMARK  status: ('A' for Active; 'I' for Inactive)
REMARK    1  A    between atoms: N_3  and  C_15 
REMARK    2  A    between atoms: C_5  and  C_7 
ROOT
HETATM    1  S   UNL     1      30.609   5.165 -12.382  1.00  0.00    -0.069 SA
HETATM    2  N   UNL     1      32.616   6.702 -12.551  1.00  0.00    -0.344 N 
HETATM    3  C   UNL     1      32.353   6.512 -11.218  1.00  0.00     0.052 A 
HETATM    4  C   UNL     1      31.743   5.990 -13.342  1.00  0.00     0.087 A 
HETATM    5  C   UNL     1      31.274   5.687 -10.945  1.00  0.00     0.034 A 
HETATM    6  C   UNL     1      33.063   7.087 -10.149  1.00  0.00     0.031 A 
HETATM    7  C   UNL     1      30.859   5.392  -9.649  1.00  0.00     0.028 A 
HETATM    8  C   UNL     1      33.672   7.622 -12.996  1.00  0.00     0.157 C 
HETATM    9  C   UNL     1      31.568   5.958  -8.574  1.00  0.00    -0.061 A 
HETATM   10  C   UNL     1      32.668   6.804  -8.832  1.00  0.00     0.009 A 
HETATM   11  C   UNL     1      31.167   5.673  -7.158  1.00  0.00     0.048 C 
ENDROOT
BRANCH   4  12
HETATM   12  C   UNL     1      31.731   5.865 -14.835  1.00  0.00    -0.002 A 
HETATM   13  C   UNL     1      30.797   6.529 -15.652  1.00  0.00     0.016 A 
HETATM   14  C   UNL     1      30.836   6.401 -17.043  1.00  0.00     0.030 A 
HETATM   15  C   UNL     1      31.817   5.611 -17.679  1.00  0.00     0.029 A 
HETATM   16  C   UNL     1      32.765   4.965 -16.858  1.00  0.00     0.030 A 
HETATM   17  C   UNL     1      32.726   5.098 -15.468  1.00  0.00     0.016 A 
BRANCH  15  18
HETATM   18  N   UNL     1      31.857   5.478 -19.117  1.00  0.00    -0.390 N 
HETATM   19  C   UNL     1      30.624   5.394 -19.889  1.00  0.00     0.149 C 
HETATM   20  C   UNL     1      33.130   5.424 -19.822  1.00  0.00     0.149 C 
ENDBRANCH  15  18
ENDBRANCH   4  12
TORSDOF 2
ENDMDL
MODEL 3
REMARK VINA RESULT:      -6.9      1.692      7.838
REMARK  2 active torsions:
REMARK  status: ('A' for Active; 'I' for Inactive)
REMARK    1  A    between atoms: N_3  and  C_15 
REMARK    2  A    between atoms: C_5  and  C_7 
ROOT
HETATM    1  S   UNL     1      30.441   5.297 -16.344  1.00  0.00    -0.069 SA
HETATM    2  N   UNL     1      32.758   6.309 -16.181  1.00  0.00    -0.344 N 
HETATM    3  C   UNL     1      32.494   6.094 -17.510  1.00  0.00     0.052 A 
HETATM    4  C   UNL     1      31.693   5.940 -15.391  1.00  0.00     0.087 A 
HETATM    5  C   UNL     1      31.254   5.539 -17.779  1.00  0.00     0.034 A 
HETATM    6  C   UNL     1      33.366   6.372 -18.577  1.00  0.00     0.031 A 
HETATM    7  C   UNL     1      30.823   5.246 -19.070  1.00  0.00     0.028 A 
HETATM    8  C   UNL     1      34.067   6.808 -15.735  1.00  0.00     0.157 C 
HETATM    9  C   UNL     1      31.687   5.527 -20.144  1.00  0.00    -0.061 A 
HETATM   10  C   UNL     1      32.957   6.089 -19.890  1.00  0.00     0.009 A 
HETATM   11  C   UNL     1      31.275   5.233 -21.555  1.00  0.00     0.048 C 
ENDROOT
BRANCH   4  12
HETATM   12  C   UNL     1      31.543   6.077 -13.906  1.00  0.00    -0.002 A 
HETATM   13  C   UNL     1      31.968   5.089 -13.000  1.00  0.00     0.016 A 
HETATM   14  C   UNL     1      31.829   5.267 -11.620  1.00  0.00     0.030 A 
HETATM   15  C   UNL     1      31.269   6.447 -11.087  1.00  0.00     0.029 A 
HETATM   16  C   UNL     1      30.866   7.445 -11.999  1.00  0.00     0.030 A 
HETATM   17  C   UNL     1      31.010   7.265 -13.377  1.00  0.00     0.016 A 
BRANCH  15  18
HETATM   18  N   UNL     1      31.125   6.632  -9.662  1.00  0.00    -0.390 N 
HETATM   19  C   UNL     1      31.231   5.499  -8.752  1.00  0.00     0.149 C 
HETATM   20  C   UNL     1      30.871   7.954  -9.107  1.00  0.00     0.149 C 
ENDBRANCH  15  18
ENDBRANCH   4  12
TORSDOF 2
ENDMDL
MODEL 4
REMARK VINA RESULT:      -6.9      1.724      2.050
REMARK  2 active torsions:
REMARK  status: ('A' for Active; 'I' for Inactive)
REMARK    1  A    between atoms: N_3  and  C_15 
REMARK    2  A    between atoms: C_5  and  C_7 
ROOT
HETATM    1  S   UNL     1      31.070   5.249 -13.337  1.00  0.00    -0.069 SA
HETATM    2  N   UNL     1      33.020   6.839 -13.641  1.00  0.00    -0.344 N 
HETATM    3  C   UNL     1      32.949   6.522 -12.307  1.00  0.00     0.052 A 
HETATM    4  C   UNL     1      32.049   6.183 -14.365  1.00  0.00     0.087 A 
HETATM    5  C   UNL     1      31.927   5.652 -11.964  1.00  0.00     0.034 A 
HETATM    6  C   UNL     1      33.799   7.011 -11.300  1.00  0.00     0.031 A 
HETATM    7  C   UNL     1      31.702   5.231 -10.656  1.00  0.00     0.028 A 
HETATM    8  C   UNL     1      33.995   7.818 -14.141  1.00  0.00     0.157 C 
HETATM    9  C   UNL     1      32.552   5.712  -9.643  1.00  0.00    -0.061 A 
HETATM   10  C   UNL     1      33.597   6.601  -9.972  1.00  0.00     0.009 A 
HETATM   11  C   UNL     1      32.357   5.291  -8.218  1.00  0.00     0.048 C 
ENDROOT
BRANCH   4  12
HETATM   12  C   UNL     1      31.827   6.194 -15.846  1.00  0.00    -0.002 A 
HETATM   13  C   UNL     1      31.042   7.164 -16.495  1.00  0.00     0.016 A 
HETATM   14  C   UNL     1      30.879   7.150 -17.884  1.00  0.00     0.030 A 
HETATM   15  C   UNL     1      31.503   6.170 -18.684  1.00  0.00     0.029 A 
HETATM   16  C   UNL     1      32.307   5.212 -18.032  1.00  0.00     0.030 A 
HETATM   17  C   UNL     1      32.471   5.232 -16.644  1.00  0.00     0.016 A 
BRANCH  15  18
HETATM   18  N   UNL     1      31.334   6.154 -20.119  1.00  0.00    -0.390 N 
HETATM   19  C   UNL     1      30.644   7.244 -20.796  1.00  0.00     0.149 C 
HETATM   20  C   UNL     1      31.849   5.049 -20.914  1.00  0.00     0.149 C 
ENDBRANCH  15  18
ENDBRANCH   4  12
TORSDOF 2
ENDMDL
MODEL 5
REMARK VINA RESULT:      -6.9      2.147      7.735
REMARK  2 active torsions:
REMARK  status: ('A' for Active; 'I' for Inactive)
REMARK    1  A    between atoms: N_3  and  C_15 
REMARK    2  A    between atoms: C_5  and  C_7 
ROOT
HETATM    1  S   UNL     1      31.882   5.010 -17.221  1.00  0.00    -0.069 SA
HETATM    2  N   UNL     1      31.188   7.419 -16.855  1.00  0.00    -0.344 N 
HETATM    3  C   UNL     1      31.074   7.156 -18.197  1.00  0.00     0.052 A 
HETATM    4  C   UNL     1      31.605   6.307 -16.159  1.00  0.00     0.087 A 
HETATM    5  C   UNL     1      31.419   5.868 -18.574  1.00  0.00     0.034 A 
HETATM    6  C   UNL     1      30.663   8.070 -19.183  1.00  0.00     0.031 A 
HETATM    7  C   UNL     1      31.372   5.430 -19.894  1.00  0.00     0.028 A 
HETATM    8  C   UNL     1      30.944   8.765 -16.319  1.00  0.00     0.157 C 
HETATM    9  C   UNL     1      30.956   6.338 -20.886  1.00  0.00    -0.061 A 
HETATM   10  C   UNL     1      30.604   7.655 -20.523  1.00  0.00     0.009 A 
HETATM   11  C   UNL     1      30.885   5.921 -22.324  1.00  0.00     0.048 C 
ENDROOT
BRANCH   4  12
HETATM   12  C   UNL     1      31.784   6.148 -14.680  1.00  0.00    -0.002 A 
HETATM   13  C   UNL     1      32.878   6.686 -13.979  1.00  0.00     0.016 A 
HETATM   14  C   UNL     1      32.994   6.533 -12.594  1.00  0.00     0.030 A 
HETATM   15  C   UNL     1      32.015   5.843 -11.849  1.00  0.00     0.029 A 
HETATM   16  C   UNL     1      30.908   5.324 -12.553  1.00  0.00     0.030 A 
HETATM   17  C   UNL     1      30.793   5.483 -13.936  1.00  0.00     0.016 A 
BRANCH  15  18
HETATM   18  N   UNL     1      32.135   5.684 -10.418  1.00  0.00    -0.390 N 
HETATM   19  C   UNL     1      30.969   5.357  -9.608  1.00  0.00     0.149 C 
HETATM   20  C   UNL     1      33.423   5.848  -9.758  1.00  0.00     0.149 C 
ENDBRANCH  15  18
ENDBRANCH   4  12
TORSDOF 2
ENDMDL
MODEL 6
REMARK VINA RESULT:      -6.8      1.970      7.631
REMARK  2 active torsions:
REMARK  status: ('A' for Active; 'I' for Inactive)
REMARK    1  A    between atoms: N_3  and  C_15 
REMARK    2  A    between atoms: C_5  and  C_7 
ROOT
HETATM    1  S   UNL     1      32.653   4.936 -15.702  1.00  0.00    -0.069 SA
HETATM    2  N   UNL     1      31.222   7.013 -15.458  1.00  0.00    -0.344 N 
HETATM    3  C   UNL     1      31.367   6.767 -16.800  1.00  0.00     0.052 A 
HETATM    4  C   UNL     1      31.862   6.058 -14.700  1.00  0.00     0.087 A 
HETATM    5  C   UNL     1      32.131   5.654 -17.113  1.00  0.00     0.034 A 
HETATM    6  C   UNL     1      30.830   7.543 -17.842  1.00  0.00     0.031 A 
HETATM    7  C   UNL     1      32.389   5.260 -18.423  1.00  0.00     0.028 A 
HETATM    8  C   UNL     1      30.515   8.207 -14.975  1.00  0.00     0.157 C 
HETATM    9  C   UNL     1      31.850   6.029 -19.472  1.00  0.00    -0.061 A 
HETATM   10  C   UNL     1      31.073   7.169 -19.173  1.00  0.00     0.009 A 
HETATM   11  C   UNL     1      32.095   5.652 -20.902  1.00  0.00     0.048 C 
ENDROOT
BRANCH   4  12
HETATM   12  C   UNL     1      31.887   5.917 -13.209  1.00  0.00    -0.002 A 
HETATM   13  C   UNL     1      32.985   6.309 -12.422  1.00  0.00     0.016 A 
HETATM   14  C   UNL     1      32.958   6.181 -11.030  1.00  0.00     0.030 A 
HETATM   15  C   UNL     1      31.827   5.664 -10.364  1.00  0.00     0.029 A 
HETATM   16  C   UNL     1      30.719   5.294 -11.155  1.00  0.00     0.030 A 
HETATM   17  C   UNL     1      30.748   5.427 -12.546  1.00  0.00     0.016 A 
BRANCH  15  18
HETATM   18  N   UNL     1      31.798   5.530  -8.926  1.00  0.00    -0.390 N 
HETATM   19  C   UNL     1      30.563   5.181  -8.238  1.00  0.00     0.149 C 
HETATM   20  C   UNL     1      33.004   5.743  -8.137  1.00  0.00     0.149 C 
ENDBRANCH  15  18
ENDBRANCH   4  12
TORSDOF 2
ENDMDL
MODEL 7
REMARK VINA RESULT:      -6.7      2.528      4.584
REMARK  2 active torsions:
REMARK  status: ('A' for Active; 'I' for Inactive)
REMARK    1  A    between atoms: N_3  and  C_15 
REMARK    2  A    between atoms: C_5  and  C_7 
ROOT
HETATM    1  S   UNL     1      31.693   5.247  -8.197  1.00  0.00    -0.069 SA
HETATM    2  N   UNL     1      30.937   7.592  -8.788  1.00  0.00    -0.344 N 
HETATM    3  C   UNL     1      30.975   7.504  -7.420  1.00  0.00     0.052 A 
HETATM    4  C   UNL     1      31.339   6.416  -9.379  1.00  0.00     0.087 A 
HETATM    5  C   UNL     1      31.373   6.273  -6.922  1.00  0.00     0.034 A 
HETATM    6  C   UNL     1      30.636   8.529  -6.519  1.00  0.00     0.031 A 
HETATM    7  C   UNL     1      31.460   6.003  -5.560  1.00  0.00     0.028 A 
HETATM    8  C   UNL     1      30.448   8.805  -9.460  1.00  0.00     0.157 C 
HETATM    9  C   UNL     1      31.129   7.026  -4.652  1.00  0.00    -0.061 A 
HETATM   10  C   UNL     1      30.717   8.285  -5.139  1.00  0.00     0.009 A 
HETATM   11  C   UNL     1      31.205   6.791  -3.173  1.00  0.00     0.048 C 
ENDROOT
BRANCH   4  12
HETATM   12  C   UNL     1      31.510   6.118 -10.838  1.00  0.00    -0.002 A 
HETATM   13  C   UNL     1      30.484   5.576 -11.634  1.00  0.00     0.016 A 
HETATM   14  C   UNL     1      30.679   5.334 -12.997  1.00  0.00     0.030 A 
HETATM   15  C   UNL     1      31.907   5.634 -13.625  1.00  0.00     0.029 A 
HETATM   16  C   UNL     1      32.925   6.198 -12.828  1.00  0.00     0.030 A 
HETATM   17  C   UNL     1      32.725   6.442 -11.467  1.00  0.00     0.016 A 
BRANCH  15  18
HETATM   18  N   UNL     1      32.109   5.383 -15.033  1.00  0.00    -0.390 N 
HETATM   19  C   UNL     1      33.455   5.293 -15.584  1.00  0.00     0.149 C 
HETATM   20  C   UNL     1      30.973   5.218 -15.929  1.00  0.00     0.149 C 
ENDBRANCH  15  18
ENDBRANCH   4  12
TORSDOF 2
ENDMDL
MODEL 8
REMARK VINA RESULT:      -6.7      2.299      8.217
REMARK  2 active torsions:
REMARK  status: ('A' for Active; 'I' for Inactive)
REMARK    1  A    between atoms: N_3  and  C_15 
REMARK    2  A    between atoms: C_5  and  C_7 
ROOT
HETATM    1  S   UNL     1      31.931   5.028 -12.379  1.00  0.00    -0.069 SA
HETATM    2  N   UNL     1      31.188   7.422 -12.005  1.00  0.00    -0.344 N 
HETATM    3  C   UNL     1      31.083   7.163 -13.348  1.00  0.00     0.052 A 
HETATM    4  C   UNL     1      31.624   6.315 -11.312  1.00  0.00     0.087 A 
HETATM    5  C   UNL     1      31.454   5.883 -13.729  1.00  0.00     0.034 A 
HETATM    6  C   UNL     1      30.656   8.073 -14.331  1.00  0.00     0.031 A 
HETATM    7  C   UNL     1      31.419   5.450 -15.052  1.00  0.00     0.028 A 
HETATM    8  C   UNL     1      30.915   8.761 -11.464  1.00  0.00     0.157 C 
HETATM    9  C   UNL     1      30.988   6.353 -16.041  1.00  0.00    -0.061 A 
HETATM   10  C   UNL     1      30.609   7.662 -15.673  1.00  0.00     0.009 A 
HETATM   11  C   UNL     1      30.929   5.941 -17.481  1.00  0.00     0.048 C 
ENDROOT
BRANCH   4  12
HETATM   12  C   UNL     1      31.803   6.154  -9.833  1.00  0.00    -0.002 A 
HETATM   13  C   UNL     1      32.888   6.704  -9.128  1.00  0.00     0.016 A 
HETATM   14  C   UNL     1      33.004   6.548  -7.744  1.00  0.00     0.030 A 
HETATM   15  C   UNL     1      32.032   5.842  -7.003  1.00  0.00     0.029 A 
HETATM   16  C   UNL     1      30.933   5.312  -7.711  1.00  0.00     0.030 A 
HETATM   17  C   UNL     1      30.819   5.474  -9.094  1.00  0.00     0.016 A 
BRANCH  15  18
HETATM   18  N   UNL     1      32.151   5.680  -5.573  1.00  0.00    -0.390 N 
HETATM   19  C   UNL     1      33.442   5.831  -4.914  1.00  0.00     0.149 C 
HETATM   20  C   UNL     1      30.984   5.361  -4.762  1.00  0.00     0.149 C 
ENDBRANCH  15  18
ENDBRANCH   4  12
TORSDOF 2
ENDMDL
MODEL 9
REMARK VINA RESULT:      -6.7      2.273      8.259
REMARK  2 active torsions:
REMARK  status: ('A' for Active; 'I' for Inactive)
REMARK    1  A    between atoms: N_3  and  C_15 
REMARK    2  A    between atoms: C_5  and  C_7 
ROOT
HETATM    1  S   UNL     1      31.335   5.238 -12.759  1.00  0.00    -0.069 SA
HETATM    2  N   UNL     1      33.123   7.014 -12.498  1.00  0.00    -0.344 N 
HETATM    3  C   UNL     1      33.064   6.681 -13.827  1.00  0.00     0.052 A 
HETATM    4  C   UNL     1      32.195   6.313 -11.762  1.00  0.00     0.087 A 
HETATM    5  C   UNL     1      32.127   5.712 -14.148  1.00  0.00     0.034 A 
HETATM    6  C   UNL     1      33.868   7.220 -14.847  1.00  0.00     0.031 A 
HETATM    7  C   UNL     1      31.937   5.247 -15.446  1.00  0.00     0.028 A 
HETATM    8  C   UNL     1      34.129   7.960 -11.993  1.00  0.00     0.157 C 
HETATM    9  C   UNL     1      32.733   5.787 -16.474  1.00  0.00    -0.061 A 
HETATM   10  C   UNL     1      33.696   6.771 -16.166  1.00  0.00     0.009 A 
HETATM   11  C   UNL     1      32.571   5.324 -17.890  1.00  0.00     0.048 C 
ENDROOT
BRANCH   4  12
HETATM   12  C   UNL     1      31.884   6.430 -10.301  1.00  0.00    -0.002 A 
HETATM   13  C   UNL     1      31.176   7.516  -9.754  1.00  0.00     0.016 A 
HETATM   14  C   UNL     1      30.888   7.575  -8.387  1.00  0.00     0.030 A 
HETATM   15  C   UNL     1      31.287   6.544  -7.510  1.00  0.00     0.029 A 
HETATM   16  C   UNL     1      31.977   5.447  -8.066  1.00  0.00     0.030 A 
HETATM   17  C   UNL     1      32.259   5.389  -9.433  1.00  0.00     0.016 A 
BRANCH  15  18
HETATM   18  N   UNL     1      30.991   6.605  -6.098  1.00  0.00    -0.390 N 
HETATM   19  C   UNL     1      31.019   5.398  -5.282  1.00  0.00     0.149 C 
HETATM   20  C   UNL     1      30.657   7.872  -5.462  1.00  0.00     0.149 C 
ENDBRANCH  15  18
ENDBRANCH   4  12
TORSDOF 2
ENDMDL
MODEL 10
REMARK VINA RESULT:      -6.7      2.289      3.670
REMARK  2 active torsions:
REMARK  status: ('A' for Active; 'I' for Inactive)
REMARK    1  A    between atoms: N_3  and  C_15 
REMARK    2  A    between atoms: C_5  and  C_7 
ROOT
HETATM    1  S   UNL     1      30.588   5.392 -16.260  1.00  0.00    -0.069 SA
HETATM    2  N   UNL     1      32.747   6.718 -16.239  1.00  0.00    -0.344 N 
HETATM    3  C   UNL     1      32.432   6.423 -14.936  1.00  0.00     0.052 A 
HETATM    4  C   UNL     1      31.826   6.186 -17.112  1.00  0.00     0.087 A 
HETATM    5  C   UNL     1      31.266   5.692 -14.767  1.00  0.00     0.034 A 
HETATM    6  C   UNL     1      33.169   6.807 -13.803  1.00  0.00     0.031 A 
HETATM    7  C   UNL     1      30.790   5.312 -13.515  1.00  0.00     0.028 A 
HETATM    8  C   UNL     1      33.904   7.563 -16.569  1.00  0.00     0.157 C 
HETATM    9  C   UNL     1      31.526   5.687 -12.376  1.00  0.00    -0.061 A 
HETATM   10  C   UNL     1      32.714   6.435 -12.528  1.00  0.00     0.009 A 
HETATM   11  C   UNL     1      31.061   5.304 -11.004  1.00  0.00     0.048 C 
ENDROOT
BRANCH   4  12
HETATM   12  C   UNL     1      31.839   6.216 -18.610  1.00  0.00    -0.002 A 
HETATM   13  C   UNL     1      32.587   5.314 -19.387  1.00  0.00     0.016 A 
HETATM   14  C   UNL     1      32.553   5.363 -20.784  1.00  0.00     0.030 A 
HETATM   15  C   UNL     1      31.760   6.311 -21.464  1.00  0.00     0.029 A 
HETATM   16  C   UNL     1      30.994   7.200 -20.681  1.00  0.00     0.030 A 
HETATM   17  C   UNL     1      31.027   7.145 -19.285  1.00  0.00     0.016 A 
BRANCH  15  18
HETATM   18  N   UNL     1      31.725   6.364 -22.907  1.00  0.00    -0.390 N 
HETATM   19  C   UNL     1      32.367   5.326 -23.703  1.00  0.00     0.149 C 
HETATM   20  C   UNL     1      31.049   7.455 -23.594  1.00  0.00     0.149 C 
ENDBRANCH  15  18
ENDBRANCH   4  12
TORSDOF 2
ENDMDL
MODEL 11
REMARK VINA RESULT:      -6.6      1.816      7.969
REMARK  2 active torsions:
REMARK  status: ('A' for Active; 'I' for Inactive)
REMARK    1  A    between atoms: N_3  and  C_15 
REMARK    2  A    between atoms: C_5  and  C_7 
ROOT
HETATM    1  S   UNL     1      33.234   7.134 -16.998  1.00  0.00    -0.069 SA
HETATM    2  N   UNL     1      31.154   5.690 -17.099  1.00  0.00    -0.344 N 
HETATM    3  C   UNL     1      31.588   5.877 -18.386  1.00  0.00     0.052 A 
HETATM    4  C   UNL     1      31.986   6.308 -16.192  1.00  0.00     0.087 A 
HETATM    5  C   UNL     1      32.729   6.653 -18.513  1.00  0.00     0.034 A 
HETATM    6  C   UNL     1      30.972   5.371 -19.544  1.00  0.00     0.031 A 
HETATM    7  C   UNL     1      33.304   6.953 -19.745  1.00  0.00     0.028 A 
HETATM    8  C   UNL     1      29.907   4.966 -16.813  1.00  0.00     0.157 C 
HETATM    9  C   UNL     1      32.697   6.445 -20.909  1.00  0.00    -0.061 A 
HETATM   10  C   UNL     1      31.532   5.656 -20.800  1.00  0.00     0.009 A 
HETATM   11  C   UNL     1      33.273   6.735 -22.262  1.00  0.00     0.048 C 
ENDROOT
BRANCH   4  12
HETATM   12  C   UNL     1      31.911   6.288 -14.696  1.00  0.00    -0.002 A 
HETATM   13  C   UNL     1      32.619   5.365 -13.906  1.00  0.00     0.016 A 
HETATM   14  C   UNL     1      32.538   5.396 -12.511  1.00  0.00     0.030 A 
HETATM   15  C   UNL     1      31.751   6.359 -11.845  1.00  0.00     0.029 A 
HETATM   16  C   UNL     1      31.059   7.297 -12.640  1.00  0.00     0.030 A 
HETATM   17  C   UNL     1      31.147   7.266 -14.034  1.00  0.00     0.016 A 
BRANCH  15  18
HETATM   18  N   UNL     1      31.665   6.391 -10.404  1.00  0.00    -0.390 N 
HETATM   19  C   UNL     1      32.274   5.339  -9.601  1.00  0.00     0.149 C 
HETATM   20  C   UNL     1      30.967   7.475  -9.726  1.00  0.00     0.149 C 
ENDBRANCH  15  18
ENDBRANCH   4  12
TORSDOF 2
ENDMDL
MODEL 12
REMARK VINA RESULT:      -6.6      1.697      2.500
REMARK  2 active torsions:
REMARK  status: ('A' for Active; 'I' for Inactive)
REMARK    1  A    between atoms: N_3  and  C_15 
REMARK    2  A    between atoms: C_5  and  C_7 
ROOT
HETATM    1  S   UNL     1      33.444   6.744 -11.696  1.00  0.00    -0.069 SA
HETATM    2  N   UNL     1      31.187   5.596 -11.585  1.00  0.00    -0.344 N 
HETATM    3  C   UNL     1      31.625   5.772 -10.297  1.00  0.00     0.052 A 
HETATM    4  C   UNL     1      32.082   6.114 -12.495  1.00  0.00     0.087 A 
HETATM    5  C   UNL     1      32.858   6.392 -10.175  1.00  0.00     0.034 A 
HETATM    6  C   UNL     1      30.944   5.367  -9.135  1.00  0.00     0.031 A 
HETATM    7  C   UNL     1      33.458   6.642  -8.945  1.00  0.00     0.028 A 
HETATM    8  C   UNL     1      29.941   4.874 -11.875  1.00  0.00     0.157 C 
HETATM    9  C   UNL     1      32.781   6.246  -7.776  1.00  0.00    -0.061 A 
HETATM   10  C   UNL     1      31.526   5.609  -7.880  1.00  0.00     0.009 A 
HETATM   11  C   UNL     1      33.380   6.491  -6.424  1.00  0.00     0.048 C 
ENDROOT
BRANCH   4  12
HETATM   12  C   UNL     1      31.953   6.194 -13.985  1.00  0.00    -0.002 A 
HETATM   13  C   UNL     1      31.087   7.094 -14.632  1.00  0.00     0.016 A 
HETATM   14  C   UNL     1      31.014   7.150 -16.027  1.00  0.00     0.030 A 
HETATM   15  C   UNL     1      31.812   6.313 -16.836  1.00  0.00     0.029 A 
HETATM   16  C   UNL     1      32.695   5.427 -16.183  1.00  0.00     0.030 A 
HETATM   17  C   UNL     1      32.769   5.378 -14.789  1.00  0.00     0.016 A 
BRANCH  15  18
HETATM   18  N   UNL     1      31.737   6.370 -18.277  1.00  0.00    -0.390 N 
HETATM   19  C   UNL     1      31.038   7.462 -18.941  1.00  0.00     0.149 C 
HETATM   20  C   UNL     1      32.357   5.335 -19.094  1.00  0.00     0.149 C 
ENDBRANCH  15  18
ENDBRANCH   4  12
TORSDOF 2
ENDMDL
MODEL 13
REMARK VINA RESULT:      -6.6      2.512      4.628
REMARK  2 active torsions:
REMARK  status: ('A' for Active; 'I' for Inactive)
REMARK    1  A    between atoms: N_3  and  C_15 
REMARK    2  A    between atoms: C_5  and  C_7 
ROOT
HETATM    1  S   UNL     1      31.124   5.274  -8.632  1.00  0.00    -0.069 SA
HETATM    2  N   UNL     1      33.078   6.863  -8.908  1.00  0.00    -0.344 N 
HETATM    3  C   UNL     1      32.994   6.540  -7.577  1.00  0.00     0.052 A 
HETATM    4  C   UNL     1      32.114   6.212  -9.645  1.00  0.00     0.087 A 
HETATM    5  C   UNL     1      31.967   5.669  -7.249  1.00  0.00     0.034 A 
HETATM    6  C   UNL     1      33.833   7.023  -6.558  1.00  0.00     0.031 A 
HETATM    7  C   UNL     1      31.729   5.241  -5.946  1.00  0.00     0.028 A 
HETATM    8  C   UNL     1      34.058   7.845  -9.393  1.00  0.00     0.157 C 
HETATM    9  C   UNL     1      32.569   5.716  -4.921  1.00  0.00    -0.061 A 
HETATM   10  C   UNL     1      33.617   6.606  -5.235  1.00  0.00     0.009 A 
HETATM   11  C   UNL     1      32.359   5.287  -3.500  1.00  0.00     0.048 C 
ENDROOT
BRANCH   4  12
HETATM   12  C   UNL     1      31.907   6.232 -11.129  1.00  0.00    -0.002 A 
HETATM   13  C   UNL     1      32.427   5.247 -11.988  1.00  0.00     0.016 A 
HETATM   14  C   UNL     1      32.191   5.292 -13.365  1.00  0.00     0.030 A 
HETATM   15  C   UNL     1      31.414   6.319 -13.941  1.00  0.00     0.029 A 
HETATM   16  C   UNL     1      30.875   7.292 -13.073  1.00  0.00     0.030 A 
HETATM   17  C   UNL     1      31.110   7.242 -11.697  1.00  0.00     0.016 A 
BRANCH  15  18
HETATM   18  N   UNL     1      31.170   6.367 -15.364  1.00  0.00    -0.390 N 
HETATM   19  C   UNL     1      30.755   7.608 -16.004  1.00  0.00     0.149 C 
HETATM   20  C   UNL     1      31.332   5.175 -16.185  1.00  0.00     0.149 C 
ENDBRANCH  15  18
ENDBRANCH   4  12
TORSDOF 2
ENDMDL
MODEL 14
REMARK VINA RESULT:      -6.6      2.694      4.955
REMARK  2 active torsions:
REMARK  status: ('A' for Active; 'I' for Inactive)
REMARK    1  A    between atoms: N_3  and  C_15 
REMARK    2  A    between atoms: C_5  and  C_7 
ROOT
HETATM    1  S   UNL     1      31.523   5.146 -17.521  1.00  0.00    -0.069 SA
HETATM    2  N   UNL     1      30.938   7.557 -18.038  1.00  0.00    -0.344 N 
HETATM    3  C   UNL     1      30.959   7.421 -16.673  1.00  0.00     0.052 A 
HETATM    4  C   UNL     1      31.262   6.375 -18.666  1.00  0.00     0.087 A 
HETATM    5  C   UNL     1      31.266   6.150 -16.215  1.00  0.00     0.034 A 
HETATM    6  C   UNL     1      30.686   8.438 -15.741  1.00  0.00     0.031 A 
HETATM    7  C   UNL     1      31.323   5.830 -14.861  1.00  0.00     0.028 A 
HETATM    8  C   UNL     1      30.541   8.822 -18.672  1.00  0.00     0.157 C 
HETATM    9  C   UNL     1      31.057   6.843 -13.922  1.00  0.00    -0.061 A 
HETATM   10  C   UNL     1      30.738   8.143 -14.369  1.00  0.00     0.009 A 
HETATM   11  C   UNL     1      31.105   6.556 -12.451  1.00  0.00     0.048 C 
ENDROOT
BRANCH   4  12
HETATM   12  C   UNL     1      31.423   6.114 -20.132  1.00  0.00    -0.002 A 
HETATM   13  C   UNL     1      30.452   5.448 -20.902  1.00  0.00     0.016 A 
HETATM   14  C   UNL     1      30.633   5.245 -22.274  1.00  0.00     0.030 A 
HETATM   15  C   UNL     1      31.789   5.708 -22.936  1.00  0.00     0.029 A 
HETATM   16  C   UNL     1      32.750   6.396 -22.165  1.00  0.00     0.030 A 
HETATM   17  C   UNL     1      32.564   6.601 -20.795  1.00  0.00     0.016 A 
BRANCH  15  18
HETATM   18  N   UNL     1      31.977   5.498 -24.353  1.00  0.00    -0.390 N 
HETATM   19  C   UNL     1      33.314   5.500 -24.932  1.00  0.00     0.149 C 
HETATM   20  C   UNL     1      30.835   5.282 -25.229  1.00  0.00     0.149 C 
ENDBRANCH  15  18
ENDBRANCH   4  12
TORSDOF 2
ENDMDL
MODEL 15
REMARK VINA RESULT:      -6.6      1.647      2.845
REMARK  2 active torsions:
REMARK  status: ('A' for Active; 'I' for Inactive)
REMARK    1  A    between atoms: N_3  and  C_15 
REMARK    2  A    between atoms: C_5  and  C_7 
ROOT
HETATM    1  S   UNL     1      30.658   8.028 -11.234  1.00  0.00    -0.069 SA
HETATM    2  N   UNL     1      31.822   5.777 -11.248  1.00  0.00    -0.344 N 
HETATM    3  C   UNL     1      31.636   6.137  -9.937  1.00  0.00     0.052 A 
HETATM    4  C   UNL     1      31.303   6.720 -12.107  1.00  0.00     0.087 A 
HETATM    5  C   UNL     1      31.006   7.357  -9.748  1.00  0.00     0.034 A 
HETATM    6  C   UNL     1      32.039   5.393  -8.815  1.00  0.00     0.031 A 
HETATM    7  C   UNL     1      30.744   7.882  -8.485  1.00  0.00     0.028 A 
HETATM    8  C   UNL     1      32.556   4.555 -11.606  1.00  0.00     0.157 C 
HETATM    9  C   UNL     1      31.139   7.141  -7.357  1.00  0.00    -0.061 A 
HETATM   10  C   UNL     1      31.786   5.899  -7.529  1.00  0.00     0.009 A 
HETATM   11  C   UNL     1      30.882   7.657  -5.973  1.00  0.00     0.048 C 
ENDROOT
BRANCH   4  12
HETATM   12  C   UNL     1      31.233   6.678 -13.603  1.00  0.00    -0.002 A 
HETATM   13  C   UNL     1      31.047   5.487 -14.327  1.00  0.00     0.016 A 
HETATM   14  C   UNL     1      30.965   5.496 -15.723  1.00  0.00     0.030 A 
HETATM   15  C   UNL     1      31.056   6.699 -16.454  1.00  0.00     0.029 A 
HETATM   16  C   UNL     1      31.219   7.894 -15.722  1.00  0.00     0.030 A 
HETATM   17  C   UNL     1      31.296   7.882 -14.327  1.00  0.00     0.016 A 
BRANCH  15  18
HETATM   18  N   UNL     1      30.972   6.710 -17.896  1.00  0.00    -0.390 N 
HETATM   19  C   UNL     1      30.821   7.964 -18.621  1.00  0.00     0.149 C 
HETATM   20  C   UNL     1      31.037   5.467 -18.652  1.00  0.00     0.149 C 
ENDBRANCH  15  18
ENDBRANCH   4  12
TORSDOF 2
ENDMDL
MODEL 16
REMARK VINA RESULT:      -6.5      2.397      8.443
REMARK  2 active torsions:
REMARK  status: ('A' for Active; 'I' for Inactive)
REMARK    1  A    between atoms: N_3  and  C_15 
REMARK    2  A    between atoms: C_5  and  C_7 
ROOT
HETATM    1  S   UNL     1      33.212   7.254 -12.279  1.00  0.00    -0.069 SA
HETATM    2  N   UNL     1      31.180   5.741 -12.311  1.00  0.00    -0.344 N 
HETATM    3  C   UNL     1      31.592   5.906 -13.609  1.00  0.00     0.052 A 
HETATM    4  C   UNL     1      32.002   6.412 -11.434  1.00  0.00     0.087 A 
HETATM    5  C   UNL     1      32.705   6.715 -13.773  1.00  0.00     0.034 A 
HETATM    6  C   UNL     1      30.979   5.346 -14.744  1.00  0.00     0.031 A 
HETATM    7  C   UNL     1      33.255   6.997 -15.020  1.00  0.00     0.028 A 
HETATM    8  C   UNL     1      29.962   4.985 -11.988  1.00  0.00     0.157 C 
HETATM    9  C   UNL     1      32.651   6.436 -16.161  1.00  0.00    -0.061 A 
HETATM   10  C   UNL     1      31.514   5.613 -16.014  1.00  0.00     0.009 A 
HETATM   11  C   UNL     1      33.200   6.706 -17.529  1.00  0.00     0.048 C 
ENDROOT
BRANCH   4  12
HETATM   12  C   UNL     1      31.946   6.433  -9.936  1.00  0.00    -0.002 A 
HETATM   13  C   UNL     1      31.234   7.404  -9.210  1.00  0.00     0.016 A 
HETATM   14  C   UNL     1      31.191   7.373  -7.813  1.00  0.00     0.030 A 
HETATM   15  C   UNL     1      31.850   6.362  -7.082  1.00  0.00     0.029 A 
HETATM   16  C   UNL     1      32.544   5.377  -7.816  1.00  0.00     0.030 A 
HETATM   17  C   UNL     1      32.582   5.409  -9.212  1.00  0.00     0.016 A 
BRANCH  15  18
HETATM   18  N   UNL     1      31.806   6.330  -5.639  1.00  0.00    -0.390 N 
HETATM   19  C   UNL     1      30.997   7.289  -4.900  1.00  0.00     0.149 C 
HETATM   20  C   UNL     1      32.571   5.338  -4.896  1.00  0.00     0.149 C 
ENDBRANCH  15  18
ENDBRANCH   4  12
TORSDOF 2
ENDMDL
MODEL 17
REMARK VINA RESULT:      -6.4      2.639      4.152
REMARK  2 active torsions:
REMARK  status: ('A' for Active; 'I' for Inactive)
REMARK    1  A    between atoms: N_3  and  C_15 
REMARK    2  A    between atoms: C_5  and  C_7 
ROOT
HETATM    1  S   UNL     1      33.217   6.942 -16.706  1.00  0.00    -0.069 SA
HETATM    2  N   UNL     1      31.041   5.662 -16.492  1.00  0.00    -0.344 N 
HETATM    3  C   UNL     1      31.554   5.816 -15.230  1.00  0.00     0.052 A 
HETATM    4  C   UNL     1      31.841   6.263 -17.438  1.00  0.00     0.087 A 
HETATM    5  C   UNL     1      32.756   6.503 -15.165  1.00  0.00     0.034 A 
HETATM    6  C   UNL     1      30.978   5.332 -14.042  1.00  0.00     0.031 A 
HETATM    7  C   UNL     1      33.424   6.743 -13.968  1.00  0.00     0.028 A 
HETATM    8  C   UNL     1      29.820   4.879 -16.728  1.00  0.00     0.157 C 
HETATM    9  C   UNL     1      32.851   6.267 -12.774  1.00  0.00    -0.061 A 
HETATM   10  C   UNL     1      31.629   5.562 -12.820  1.00  0.00     0.009 A 
HETATM   11  C   UNL     1      33.526   6.498 -11.456  1.00  0.00     0.048 C 
ENDROOT
BRANCH   4  12
HETATM   12  C   UNL     1      31.607   6.388 -18.912  1.00  0.00    -0.002 A 
HETATM   13  C   UNL     1      31.028   7.526 -19.502  1.00  0.00     0.016 A 
HETATM   14  C   UNL     1      30.848   7.610 -20.886  1.00  0.00     0.030 A 
HETATM   15  C   UNL     1      31.248   6.561 -21.741  1.00  0.00     0.029 A 
HETATM   16  C   UNL     1      31.849   5.431 -21.147  1.00  0.00     0.030 A 
HETATM   17  C   UNL     1      32.031   5.353 -19.764  1.00  0.00     0.016 A 
BRANCH  15  18
HETATM   18  N   UNL     1      31.062   6.646 -23.170  1.00  0.00    -0.390 N 
HETATM   19  C   UNL     1      31.094   5.446 -23.995  1.00  0.00     0.149 C 
HETATM   20  C   UNL     1      30.839   7.933 -23.815  1.00  0.00     0.149 C 
ENDBRANCH  15  18
ENDBRANCH   4  12
TORSDOF 2
ENDMDL
MODEL 18
REMARK VINA RESULT:      -6.4      1.771      2.881
REMARK  2 active torsions:
REMARK  status: ('A' for Active; 'I' for Inactive)
REMARK    1  A    between atoms: N_3  and  C_15 
REMARK    2  A    between atoms: C_5  and  C_7 
ROOT
HETATM    1  S   UNL     1      32.722   5.018 -15.330  1.00  0.00    -0.069 SA
HETATM    2  N   UNL     1      31.377   7.157 -15.525  1.00  0.00    -0.344 N 
HETATM    3  C   UNL     1      31.455   6.839 -14.192  1.00  0.00     0.052 A 
HETATM    4  C   UNL     1      32.062   6.248 -16.300  1.00  0.00     0.087 A 
HETATM    5  C   UNL     1      32.165   5.683 -13.906  1.00  0.00     0.034 A 
HETATM    6  C   UNL     1      30.875   7.564 -13.137  1.00  0.00     0.031 A 
HETATM    7  C   UNL     1      32.337   5.206 -12.610  1.00  0.00     0.028 A 
HETATM    8  C   UNL     1      30.583   8.303 -15.988  1.00  0.00     0.157 C 
HETATM    9  C   UNL     1      31.765   5.930 -11.548  1.00  0.00    -0.061 A 
HETATM   10  C   UNL     1      31.035   7.107 -11.819  1.00  0.00     0.009 A 
HETATM   11  C   UNL     1      31.920   5.463 -10.132  1.00  0.00     0.048 C 
ENDROOT
BRANCH   4  12
HETATM   12  C   UNL     1      32.284   6.270 -17.781  1.00  0.00    -0.002 A 
HETATM   13  C   UNL     1      31.542   5.480 -18.678  1.00  0.00     0.016 A 
HETATM   14  C   UNL     1      31.766   5.548 -20.056  1.00  0.00     0.030 A 
HETATM   15  C   UNL     1      32.738   6.416 -20.598  1.00  0.00     0.029 A 
HETATM   16  C   UNL     1      33.465   7.222 -19.697  1.00  0.00     0.030 A 
HETATM   17  C   UNL     1      33.234   7.155 -18.320  1.00  0.00     0.016 A 
BRANCH  15  18
HETATM   18  N   UNL     1      32.971   6.485 -22.021  1.00  0.00    -0.390 N 
HETATM   19  C   UNL     1      33.640   7.639 -22.607  1.00  0.00     0.149 C 
HETATM   20  C   UNL     1      32.542   5.404 -22.898  1.00  0.00     0.149 C 
ENDBRANCH  15  18
ENDBRANCH   4  12
TORSDOF 2
ENDMDL
MODEL 19
REMARK VINA RESULT:      -6.4      1.340      2.074
REMARK  2 active torsions:
REMARK  status: ('A' for Active; 'I' for Inactive)
REMARK    1  A    between atoms: N_3  and  C_15 
REMARK    2  A    between atoms: C_5  and  C_7 
ROOT
HETATM    1  S   UNL     1      30.850   8.782 -14.055  1.00  0.00    -0.069 SA
HETATM    2  N   UNL     1      31.616   6.484 -13.313  1.00  0.00    -0.344 N 
HETATM    3  C   UNL     1      31.286   7.193 -12.185  1.00  0.00     0.052 A 
HETATM    4  C   UNL     1      31.401   7.225 -14.453  1.00  0.00     0.087 A 
HETATM    5  C   UNL     1      30.842   8.485 -12.414  1.00  0.00     0.034 A 
HETATM    6  C   UNL     1      31.378   6.725 -10.863  1.00  0.00     0.031 A 
HETATM    7  C   UNL     1      30.473   9.349 -11.387  1.00  0.00     0.028 A 
HETATM    8  C   UNL     1      32.187   5.133 -13.223  1.00  0.00     0.157 C 
HETATM    9  C   UNL     1      30.556   8.886 -10.061  1.00  0.00    -0.061 A 
HETATM   10  C   UNL     1      31.010   7.574  -9.807  1.00  0.00     0.009 A 
HETATM   11  C   UNL     1      30.171   9.772  -8.915  1.00  0.00     0.048 C 
ENDROOT
BRANCH   4  12
HETATM   12  C   UNL     1      31.564   6.803 -15.882  1.00  0.00    -0.002 A 
HETATM   13  C   UNL     1      32.636   7.226 -16.688  1.00  0.00     0.016 A 
HETATM   14  C   UNL     1      32.761   6.790 -18.010  1.00  0.00     0.030 A 
HETATM   15  C   UNL     1      31.824   5.902 -18.580  1.00  0.00     0.029 A 
HETATM   16  C   UNL     1      30.763   5.462 -17.761  1.00  0.00     0.030 A 
HETATM   17  C   UNL     1      30.644   5.897 -16.439  1.00  0.00     0.016 A 
BRANCH  15  18
HETATM   18  N   UNL     1      31.952   5.452 -19.946  1.00  0.00    -0.390 N 
HETATM   19  C   UNL     1      33.264   5.180 -20.518  1.00  0.00     0.149 C 
HETATM   20  C   UNL     1      30.772   5.261 -20.779  1.00  0.00     0.149 C 
ENDBRANCH  15  18
ENDBRANCH   4  12
TORSDOF 2
ENDMDL
MODEL 20
REMARK VINA RESULT:      -6.4      3.057      8.944
REMARK  2 active torsions:
REMARK  status: ('A' for Active; 'I' for Inactive)
REMARK    1  A    between atoms: N_3  and  C_15 
REMARK    2  A    between atoms: C_5  and  C_7 
ROOT
HETATM    1  S   UNL     1      32.493   5.036 -20.371  1.00  0.00    -0.069 SA
HETATM    2  N   UNL     1      31.174   7.179 -20.075  1.00  0.00    -0.344 N 
HETATM    3  C   UNL     1      31.300   6.955 -21.423  1.00  0.00     0.052 A 
HETATM    4  C   UNL     1      31.766   6.176 -19.341  1.00  0.00     0.087 A 
HETATM    5  C   UNL     1      32.003   5.810 -21.764  1.00  0.00     0.034 A 
HETATM    6  C   UNL     1      30.799   7.780 -22.445  1.00  0.00     0.031 A 
HETATM    7  C   UNL     1      32.234   5.432 -23.083  1.00  0.00     0.028 A 
HETATM    8  C   UNL     1      30.533   8.398 -19.563  1.00  0.00     0.157 C 
HETATM    9  C   UNL     1      31.731   6.250 -24.112  1.00  0.00    -0.061 A 
HETATM   10  C   UNL     1      31.016   7.422 -23.785  1.00  0.00     0.009 A 
HETATM   11  C   UNL     1      31.949   5.891 -25.551  1.00  0.00     0.048 C 
ENDROOT
BRANCH   4  12
HETATM   12  C   UNL     1      31.792   6.003 -17.853  1.00  0.00    -0.002 A 
HETATM   13  C   UNL     1      32.886   6.385 -17.057  1.00  0.00     0.016 A 
HETATM   14  C   UNL     1      32.859   6.226 -15.668  1.00  0.00     0.030 A 
HETATM   15  C   UNL     1      31.731   5.687 -15.015  1.00  0.00     0.029 A 
HETATM   16  C   UNL     1      30.626   5.326 -15.815  1.00  0.00     0.030 A 
HETATM   17  C   UNL     1      30.655   5.490 -17.202  1.00  0.00     0.016 A 
BRANCH  15  18
HETATM   18  N   UNL     1      31.702   5.521 -13.580  1.00  0.00    -0.390 N 
HETATM   19  C   UNL     1      32.925   5.631 -12.796  1.00  0.00     0.149 C 
HETATM   20  C   UNL     1      30.450   5.239 -12.891  1.00  0.00     0.149 C 
ENDBRANCH  15  18
ENDBRANCH   4  12
TORSDOF 2
ENDMDL
