MODEL 1
REMARK VINA RESULT:      -9.0      0.000      0.000
REMARK  5 active torsions:
REMARK  status: ('A' for Active; 'I' for Inactive)
REMARK    1  A    between atoms: S_3  and  O_4 
REMARK    2  A    between atoms: S_3  and  C_15 
REMARK    3  A    between atoms: N_9  and  C_30 
REMARK    4  A    between atoms: C_11  and  C_13 
REMARK    5  A    between atoms: C_18  and  C_25 
ROOT
HETATM    1  S   UNL     1      31.122   8.366 -11.179  1.00  0.00    -0.068 SA
HETATM    2  N   UNL     1      32.046   6.017 -11.193  1.00  0.00    -0.344 N 
HETATM    3  C   UNL     1      31.711   6.321  -9.895  1.00  0.00     0.053 A 
HETATM    4  C   UNL     1      31.803   7.074 -12.038  1.00  0.00     0.087 A 
HETATM    5  C   UNL     1      31.180   7.590  -9.699  1.00  0.00     0.057 A 
HETATM    6  C   UNL     1      30.778   8.060  -8.440  1.00  0.00     0.097 A 
HETATM    7  C   UNL     1      30.927   7.188  -7.331  1.00  0.00    -0.037 A 
HETATM    8  C   UNL     1      31.850   5.459  -8.797  1.00  0.00     0.031 A 
HETATM    9  C   UNL     1      32.534   4.681 -11.562  1.00  0.00     0.157 C 
HETATM   10  C   UNL     1      31.461   5.895  -7.526  1.00  0.00     0.011 A 
HETATM   11  C   UNL     1      30.525   7.608  -5.942  1.00  0.00     0.050 C 
ENDROOT
BRANCH   4  12
HETATM   12  C   UNL     1      32.095   7.185 -13.503  1.00  0.00    -0.001 A 
HETATM   13  C   UNL     1      31.333   6.516 -14.488  1.00  0.00     0.035 A 
HETATM   14  C   UNL     1      31.690   6.652 -15.826  1.00  0.00     0.034 A 
HETATM   15  S   UNL     1      30.948   5.978 -17.160  1.00  0.00    -0.069 SA
HETATM   16  C   UNL     1      32.769   7.408 -16.242  1.00  0.00     0.052 A 
HETATM   17  C   UNL     1      32.047   6.659 -18.261  1.00  0.00     0.087 A 
HETATM   18  N   UNL     1      32.970   7.438 -17.600  1.00  0.00    -0.344 N 
HETATM   19  C   UNL     1      34.025   8.270 -18.197  1.00  0.00     0.157 C 
HETATM   20  C   UNL     1      33.548   8.071 -15.283  1.00  0.00     0.032 A 
HETATM   21  C   UNL     1      33.215   7.946 -13.924  1.00  0.00     0.016 A 
BRANCH  17  22
HETATM   22  C   UNL     1      31.962   6.359 -19.726  1.00  0.00    -0.002 A 
HETATM   23  C   UNL     1      30.970   6.901 -20.563  1.00  0.00     0.016 A 
HETATM   24  C   UNL     1      30.942   6.613 -21.930  1.00  0.00     0.030 A 
HETATM   25  C   UNL     1      31.913   5.777 -22.522  1.00  0.00     0.029 A 
HETATM   26  C   UNL     1      32.920   5.253 -21.684  1.00  0.00     0.030 A 
HETATM   27  C   UNL     1      32.946   5.546 -20.318  1.00  0.00     0.016 A 
BRANCH  25  28
HETATM   28  N   UNL     1      31.885   5.479 -23.935  1.00  0.00    -0.390 N 
HETATM   29  C   UNL     1      33.123   5.380 -24.698  1.00  0.00     0.149 C 
HETATM   30  C   UNL     1      30.618   5.273 -24.626  1.00  0.00     0.149 C 
ENDBRANCH  25  28
ENDBRANCH  17  22
ENDBRANCH   4  12
BRANCH   6  31
HETATM   31  S   UNL     1      30.097   9.726  -8.258  1.00  0.00     0.131 S 
HETATM   32  O   UNL     1      31.116  10.822  -8.607  1.00  0.00    -0.598 OA
HETATM   33  O   UNL     1      29.002  10.001  -9.300  1.00  0.00    -0.598 OA
BRANCH  31  34
HETATM   34  O   UNL     1      29.396  10.221  -6.768  1.00  0.00    -0.292 OA
HETATM   35  H   UNL     1      29.898   9.726  -6.071  1.00  0.00     0.232 HD
ENDBRANCH  31  34
ENDBRANCH   6  31
TORSDOF 5
ENDMDL
MODEL 2
REMARK VINA RESULT:      -9.0      3.777     11.475
REMARK  5 active torsions:
REMARK  status: ('A' for Active; 'I' for Inactive)
REMARK    1  A    between atoms: S_3  and  O_4 
REMARK    2  A    between atoms: S_3  and  C_15 
REMARK    3  A    between atoms: N_9  and  C_30 
REMARK    4  A    between atoms: C_11  and  C_13 
REMARK    5  A    between atoms: C_18  and  C_25 
ROOT
HETATM    1  S   UNL     1      31.347   8.284 -16.465  1.00  0.00    -0.068 SA
HETATM    2  N   UNL     1      32.355   5.970 -16.500  1.00  0.00    -0.344 N 
HETATM    3  C   UNL     1      31.903   6.242 -17.768  1.00  0.00     0.053 A 
HETATM    4  C   UNL     1      32.093   7.008 -15.636  1.00  0.00     0.087 A 
HETATM    5  C   UNL     1      31.312   7.489 -17.935  1.00  0.00     0.057 A 
HETATM    6  C   UNL     1      30.804   7.932 -19.165  1.00  0.00     0.097 A 
HETATM    7  C   UNL     1      30.907   7.056 -20.276  1.00  0.00    -0.037 A 
HETATM    8  C   UNL     1      32.010   5.381 -18.871  1.00  0.00     0.031 A 
HETATM    9  C   UNL     1      33.080   4.728 -16.199  1.00  0.00     0.157 C 
HETATM   10  C   UNL     1      31.511   5.789 -20.113  1.00  0.00     0.011 A 
HETATM   11  C   UNL     1      30.386   7.444 -21.635  1.00  0.00     0.050 C 
ENDROOT
BRANCH   4  12
HETATM   12  C   UNL     1      32.350   7.084 -14.163  1.00  0.00    -0.001 A 
HETATM   13  C   UNL     1      31.665   6.279 -13.223  1.00  0.00     0.035 A 
HETATM   14  C   UNL     1      31.947   6.433 -11.869  1.00  0.00     0.034 A 
HETATM   15  S   UNL     1      31.286   5.602 -10.583  1.00  0.00    -0.069 SA
HETATM   16  C   UNL     1      32.865   7.349 -11.393  1.00  0.00     0.052 A 
HETATM   17  C   UNL     1      32.183   6.453  -9.420  1.00  0.00     0.087 A 
HETATM   18  N   UNL     1      33.022   7.359 -10.029  1.00  0.00    -0.344 N 
HETATM   19  C   UNL     1      34.026   8.217  -9.384  1.00  0.00     0.157 C 
HETATM   20  C   UNL     1      33.548   8.167 -12.304  1.00  0.00     0.032 A 
HETATM   21  C   UNL     1      33.279   8.039 -13.676  1.00  0.00     0.016 A 
BRANCH  17  22
HETATM   22  C   UNL     1      31.987   6.206  -7.956  1.00  0.00    -0.002 A 
HETATM   23  C   UNL     1      30.963   6.813  -7.206  1.00  0.00     0.016 A 
HETATM   24  C   UNL     1      30.802   6.535  -5.846  1.00  0.00     0.030 A 
HETATM   25  C   UNL     1      31.652   5.628  -5.178  1.00  0.00     0.029 A 
HETATM   26  C   UNL     1      32.663   5.004  -5.938  1.00  0.00     0.030 A 
HETATM   27  C   UNL     1      32.820   5.282  -7.298  1.00  0.00     0.016 A 
BRANCH  25  28
HETATM   28  N   UNL     1      31.486   5.340  -3.773  1.00  0.00    -0.390 N 
HETATM   29  C   UNL     1      30.160   5.099  -3.216  1.00  0.00     0.149 C 
HETATM   30  C   UNL     1      32.639   5.286  -2.884  1.00  0.00     0.149 C 
ENDBRANCH  25  28
ENDBRANCH  17  22
ENDBRANCH   4  12
BRANCH   6  31
HETATM   31  S   UNL     1      30.045   9.567 -19.309  1.00  0.00     0.131 S 
HETATM   32  O   UNL     1      29.578  10.123 -17.954  1.00  0.00    -0.598 OA
HETATM   33  O   UNL     1      31.075  10.629 -19.721  1.00  0.00    -0.598 OA
BRANCH  31  34
HETATM   34  O   UNL     1      28.724   9.822 -20.379  1.00  0.00    -0.292 OA
HETATM   35  H   UNL     1      29.029  10.534 -20.999  1.00  0.00     0.232 HD
ENDBRANCH  31  34
ENDBRANCH   6  31
TORSDOF 5
ENDMDL
MODEL 3
REMARK VINA RESULT:      -8.9      2.727      3.196
REMARK  5 active torsions:
REMARK  status: ('A' for Active; 'I' for Inactive)
REMARK    1  A    between atoms: S_3  and  O_4 
REMARK    2  A    between atoms: S_3  and  C_15 
REMARK    3  A    between atoms: N_9  and  C_30 
REMARK    4  A    between atoms: C_11  and  C_13 
REMARK    5  A    between atoms: C_18  and  C_25 
ROOT
HETATM    1  S   UNL     1      32.162   5.829 -10.134  1.00  0.00    -0.068 SA
HETATM    2  N   UNL     1      33.508   7.771 -11.023  1.00  0.00    -0.344 N 
HETATM    3  C   UNL     1      33.614   7.788  -9.653  1.00  0.00     0.053 A 
HETATM    4  C   UNL     1      32.700   6.746 -11.455  1.00  0.00     0.087 A 
HETATM    5  C   UNL     1      32.928   6.778  -8.990  1.00  0.00     0.057 A 
HETATM    6  C   UNL     1      32.935   6.642  -7.594  1.00  0.00     0.097 A 
HETATM    7  C   UNL     1      33.681   7.587  -6.843  1.00  0.00    -0.037 A 
HETATM    8  C   UNL     1      34.357   8.716  -8.908  1.00  0.00     0.031 A 
HETATM    9  C   UNL     1      34.252   8.725 -11.858  1.00  0.00     0.157 C 
HETATM   10  C   UNL     1      34.384   8.613  -7.513  1.00  0.00     0.011 A 
HETATM   11  C   UNL     1      33.745   7.522  -5.340  1.00  0.00     0.050 C 
ENDROOT
BRANCH   4  12
HETATM   12  C   UNL     1      32.266   6.424 -12.851  1.00  0.00    -0.001 A 
HETATM   13  C   UNL     1      32.974   6.863 -13.994  1.00  0.00     0.035 A 
HETATM   14  C   UNL     1      32.486   6.541 -15.256  1.00  0.00     0.034 A 
HETATM   15  S   UNL     1      33.142   6.931 -16.740  1.00  0.00    -0.069 SA
HETATM   16  C   UNL     1      31.326   5.814 -15.451  1.00  0.00     0.052 A 
HETATM   17  C   UNL     1      31.904   6.169 -17.619  1.00  0.00     0.087 A 
HETATM   18  N   UNL     1      30.998   5.582 -16.763  1.00  0.00    -0.344 N 
HETATM   19  C   UNL     1      29.842   4.750 -17.124  1.00  0.00     0.157 C 
HETATM   20  C   UNL     1      30.600   5.378 -14.334  1.00  0.00     0.032 A 
HETATM   21  C   UNL     1      31.065   5.694 -13.046  1.00  0.00     0.016 A 
BRANCH  17  22
HETATM   22  C   UNL     1      31.871   6.221 -19.115  1.00  0.00    -0.002 A 
HETATM   23  C   UNL     1      31.058   7.115 -19.834  1.00  0.00     0.016 A 
HETATM   24  C   UNL     1      31.077   7.146 -21.231  1.00  0.00     0.030 A 
HETATM   25  C   UNL     1      31.919   6.288 -21.971  1.00  0.00     0.029 A 
HETATM   26  C   UNL     1      32.750   5.408 -21.246  1.00  0.00     0.030 A 
HETATM   27  C   UNL     1      32.730   5.383 -19.849  1.00  0.00     0.016 A 
BRANCH  25  28
HETATM   28  N   UNL     1      31.939   6.319 -23.414  1.00  0.00    -0.390 N 
HETATM   29  C   UNL     1      32.785   5.399 -24.165  1.00  0.00     0.149 C 
HETATM   30  C   UNL     1      31.116   7.271 -24.148  1.00  0.00     0.149 C 
ENDBRANCH  25  28
ENDBRANCH  17  22
ENDBRANCH   4  12
BRANCH   6  31
HETATM   31  S   UNL     1      32.017   5.303  -6.798  1.00  0.00     0.131 S 
HETATM   32  O   UNL     1      32.889   4.066  -6.531  1.00  0.00    -0.598 OA
HETATM   33  O   UNL     1      31.600   5.682  -5.368  1.00  0.00    -0.598 OA
BRANCH  31  34
HETATM   34  O   UNL     1      30.577   4.693  -7.510  1.00  0.00    -0.292 OA
HETATM   35  H   UNL     1      30.698   4.819  -8.485  1.00  0.00     0.232 HD
ENDBRANCH  31  34
ENDBRANCH   6  31
TORSDOF 5
ENDMDL
MODEL 4
REMARK VINA RESULT:      -8.8      1.906      2.186
REMARK  5 active torsions:
REMARK  status: ('A' for Active; 'I' for Inactive)
REMARK    1  A    between atoms: S_3  and  O_4 
REMARK    2  A    between atoms: S_3  and  C_15 
REMARK    3  A    between atoms: N_9  and  C_30 
REMARK    4  A    between atoms: C_11  and  C_13 
REMARK    5  A    between atoms: C_18  and  C_25 
ROOT
HETATM    1  S   UNL     1      32.408   8.007 -11.748  1.00  0.00    -0.068 SA
HETATM    2  N   UNL     1      30.900   5.985 -11.839  1.00  0.00    -0.344 N 
HETATM    3  C   UNL     1      31.337   6.115 -10.543  1.00  0.00     0.053 A 
HETATM    4  C   UNL     1      31.435   6.956 -12.653  1.00  0.00     0.087 A 
HETATM    5  C   UNL     1      32.186   7.189 -10.306  1.00  0.00     0.057 A 
HETATM    6  C   UNL     1      32.718   7.474  -9.040  1.00  0.00     0.097 A 
HETATM    7  C   UNL     1      32.361   6.618  -7.966  1.00  0.00    -0.037 A 
HETATM    8  C   UNL     1      30.980   5.275  -9.477  1.00  0.00     0.031 A 
HETATM    9  C   UNL     1      29.928   4.949 -12.216  1.00  0.00     0.157 C 
HETATM   10  C   UNL     1      31.494   5.528  -8.201  1.00  0.00     0.011 A 
HETATM   11  C   UNL     1      32.886   6.844  -6.573  1.00  0.00     0.050 C 
ENDROOT
BRANCH   4  12
HETATM   12  C   UNL     1      31.278   7.124 -14.133  1.00  0.00    -0.001 A 
HETATM   13  C   UNL     1      31.626   6.114 -15.060  1.00  0.00     0.035 A 
HETATM   14  C   UNL     1      31.473   6.364 -16.420  1.00  0.00     0.034 A 
HETATM   15  S   UNL     1      31.800   5.339 -17.694  1.00  0.00    -0.069 SA
HETATM   16  C   UNL     1      31.001   7.565 -16.915  1.00  0.00     0.052 A 
HETATM   17  C   UNL     1      31.346   6.472 -18.875  1.00  0.00     0.087 A 
HETATM   18  N   UNL     1      30.907   7.634 -18.282  1.00  0.00    -0.344 N 
HETATM   19  C   UNL     1      30.340   8.815 -18.949  1.00  0.00     0.157 C 
HETATM   20  C   UNL     1      30.661   8.586 -16.016  1.00  0.00     0.032 A 
HETATM   21  C   UNL     1      30.812   8.365 -14.637  1.00  0.00     0.016 A 
BRANCH  17  22
HETATM   22  C   UNL     1      31.480   6.165 -20.335  1.00  0.00    -0.002 A 
HETATM   23  C   UNL     1      30.466   5.540 -21.084  1.00  0.00     0.016 A 
HETATM   24  C   UNL     1      30.625   5.294 -22.450  1.00  0.00     0.030 A 
HETATM   25  C   UNL     1      31.802   5.673 -23.131  1.00  0.00     0.029 A 
HETATM   26  C   UNL     1      32.807   6.319 -22.381  1.00  0.00     0.030 A 
HETATM   27  C   UNL     1      32.644   6.567 -21.016  1.00  0.00     0.016 A 
BRANCH  25  28
HETATM   28  N   UNL     1      31.967   5.419 -24.543  1.00  0.00    -0.390 N 
HETATM   29  C   UNL     1      33.297   5.314 -25.129  1.00  0.00     0.149 C 
HETATM   30  C   UNL     1      30.806   5.264 -25.410  1.00  0.00     0.149 C 
ENDBRANCH  25  28
ENDBRANCH  17  22
ENDBRANCH   4  12
BRANCH   6  31
HETATM   31  S   UNL     1      33.820   8.889  -8.805  1.00  0.00     0.131 S 
HETATM   32  O   UNL     1      34.898   8.986  -9.896  1.00  0.00    -0.598 OA
HETATM   33  O   UNL     1      33.077  10.218  -9.008  1.00  0.00    -0.598 OA
BRANCH  31  34
HETATM   34  O   UNL     1      34.662   9.098  -7.321  1.00  0.00    -0.292 OA
HETATM   35  H   UNL     1      34.847  10.071  -7.265  1.00  0.00     0.232 HD
ENDBRANCH  31  34
ENDBRANCH   6  31
TORSDOF 5
ENDMDL
MODEL 5
REMARK VINA RESULT:      -8.8      4.960     11.838
REMARK  5 active torsions:
REMARK  status: ('A' for Active; 'I' for Inactive)
REMARK    1  A    between atoms: S_3  and  O_4 
REMARK    2  A    between atoms: S_3  and  C_15 
REMARK    3  A    between atoms: N_9  and  C_30 
REMARK    4  A    between atoms: C_11  and  C_13 
REMARK    5  A    between atoms: C_18  and  C_25 
ROOT
HETATM    1  S   UNL     1      31.162   8.306 -21.457  1.00  0.00    -0.068 SA
HETATM    2  N   UNL     1      32.040   5.942 -21.564  1.00  0.00    -0.344 N 
HETATM    3  C   UNL     1      31.556   6.259 -22.810  1.00  0.00     0.053 A 
HETATM    4  C   UNL     1      31.867   6.978 -20.676  1.00  0.00     0.087 A 
HETATM    5  C   UNL     1      31.029   7.538 -22.937  1.00  0.00     0.057 A 
HETATM    6  C   UNL     1      30.500   8.028 -24.140  1.00  0.00     0.097 A 
HETATM    7  C   UNL     1      30.513   7.166 -25.267  1.00  0.00    -0.037 A 
HETATM    8  C   UNL     1      31.574   5.411 -23.928  1.00  0.00     0.031 A 
HETATM    9  C   UNL     1      32.706   4.657 -21.309  1.00  0.00     0.157 C 
HETATM   10  C   UNL     1      31.052   5.866 -25.145  1.00  0.00     0.011 A 
HETATM   11  C   UNL     1      29.964   7.604 -26.599  1.00  0.00     0.050 C 
ENDROOT
BRANCH   4  12
HETATM   12  C   UNL     1      32.183   7.016 -19.213  1.00  0.00    -0.001 A 
HETATM   13  C   UNL     1      31.431   6.306 -18.249  1.00  0.00     0.035 A 
HETATM   14  C   UNL     1      31.777   6.418 -16.906  1.00  0.00     0.034 A 
HETATM   15  S   UNL     1      31.057   5.678 -15.596  1.00  0.00    -0.069 SA
HETATM   16  C   UNL     1      32.824   7.204 -16.463  1.00  0.00     0.052 A 
HETATM   17  C   UNL     1      32.099   6.401 -14.466  1.00  0.00     0.087 A 
HETATM   18  N   UNL     1      33.028   7.189 -15.105  1.00  0.00    -0.344 N 
HETATM   19  C   UNL     1      34.158   7.906 -14.497  1.00  0.00     0.157 C 
HETATM   20  C   UNL     1      33.577   7.926 -17.399  1.00  0.00     0.032 A 
HETATM   21  C   UNL     1      33.246   7.838 -18.761  1.00  0.00     0.016 A 
BRANCH  17  22
HETATM   22  C   UNL     1      31.922   6.178 -12.995  1.00  0.00    -0.002 A 
HETATM   23  C   UNL     1      30.890   6.773 -12.248  1.00  0.00     0.016 A 
HETATM   24  C   UNL     1      30.748   6.518 -10.881  1.00  0.00     0.030 A 
HETATM   25  C   UNL     1      31.628   5.648 -10.204  1.00  0.00     0.029 A 
HETATM   26  C   UNL     1      32.648   5.035 -10.961  1.00  0.00     0.030 A 
HETATM   27  C   UNL     1      32.785   5.289 -12.328  1.00  0.00     0.016 A 
BRANCH  25  28
HETATM   28  N   UNL     1      31.481   5.384  -8.791  1.00  0.00    -0.390 N 
HETATM   29  C   UNL     1      30.175   5.068  -8.226  1.00  0.00     0.149 C 
HETATM   30  C   UNL     1      32.636   5.429  -7.904  1.00  0.00     0.149 C 
ENDBRANCH  25  28
ENDBRANCH  17  22
ENDBRANCH   4  12
BRANCH   6  31
HETATM   31  S   UNL     1      29.827   9.704 -24.231  1.00  0.00     0.131 S 
HETATM   32  O   UNL     1      30.877  10.739 -24.666  1.00  0.00    -0.598 OA
HETATM   33  O   UNL     1      28.799   9.835 -25.365  1.00  0.00    -0.598 OA
BRANCH  31  34
HETATM   34  O   UNL     1      29.044  10.403 -22.870  1.00  0.00    -0.292 OA
HETATM   35  H   UNL     1      29.578  11.209 -22.652  1.00  0.00     0.232 HD
ENDBRANCH  31  34
ENDBRANCH   6  31
TORSDOF 5
ENDMDL
MODEL 6
REMARK VINA RESULT:      -8.8      4.874     11.871
REMARK  5 active torsions:
REMARK  status: ('A' for Active; 'I' for Inactive)
REMARK    1  A    between atoms: S_3  and  O_4 
REMARK    2  A    between atoms: S_3  and  C_15 
REMARK    3  A    between atoms: N_9  and  C_30 
REMARK    4  A    between atoms: C_11  and  C_13 
REMARK    5  A    between atoms: C_18  and  C_25 
ROOT
HETATM    1  S   UNL     1      32.094   6.139 -18.861  1.00  0.00    -0.068 SA
HETATM    2  N   UNL     1      33.055   8.318 -18.024  1.00  0.00    -0.344 N 
HETATM    3  C   UNL     1      33.306   8.248 -19.373  1.00  0.00     0.053 A 
HETATM    4  C   UNL     1      32.404   7.195 -17.571  1.00  0.00     0.087 A 
HETATM    5  C   UNL     1      32.841   7.102 -20.006  1.00  0.00     0.057 A 
HETATM    6  C   UNL     1      33.005   6.871 -21.380  1.00  0.00     0.097 A 
HETATM    7  C   UNL     1      33.676   7.863 -22.140  1.00  0.00    -0.037 A 
HETATM    8  C   UNL     1      33.963   9.230 -20.129  1.00  0.00     0.031 A 
HETATM    9  C   UNL     1      33.410   9.512 -17.244  1.00  0.00     0.157 C 
HETATM   10  C   UNL     1      34.146   9.032 -21.502  1.00  0.00     0.011 A 
HETATM   11  C   UNL     1      33.901   7.701 -23.620  1.00  0.00     0.050 C 
ENDROOT
BRANCH   4  12
HETATM   12  C   UNL     1      32.017   6.841 -16.169  1.00  0.00    -0.001 A 
HETATM   13  C   UNL     1      32.620   7.435 -15.036  1.00  0.00     0.035 A 
HETATM   14  C   UNL     1      32.219   7.029 -13.766  1.00  0.00     0.034 A 
HETATM   15  S   UNL     1      32.768   7.582 -12.291  1.00  0.00    -0.069 SA
HETATM   16  C   UNL     1      31.258   6.058 -13.557  1.00  0.00     0.052 A 
HETATM   17  C   UNL     1      31.767   6.541 -11.397  1.00  0.00     0.087 A 
HETATM   18  N   UNL     1      30.981   5.788 -12.240  1.00  0.00    -0.344 N 
HETATM   19  C   UNL     1      29.921   4.843 -11.862  1.00  0.00     0.157 C 
HETATM   20  C   UNL     1      30.655   5.446 -14.665  1.00  0.00     0.032 A 
HETATM   21  C   UNL     1      31.044   5.831 -15.958  1.00  0.00     0.016 A 
BRANCH  17  22
HETATM   22  C   UNL     1      31.835   6.497  -9.901  1.00  0.00    -0.002 A 
HETATM   23  C   UNL     1      31.072   7.340  -9.074  1.00  0.00     0.016 A 
HETATM   24  C   UNL     1      31.150   7.249  -7.681  1.00  0.00     0.030 A 
HETATM   25  C   UNL     1      31.987   6.301  -7.055  1.00  0.00     0.029 A 
HETATM   26  C   UNL     1      32.734   5.441  -7.888  1.00  0.00     0.030 A 
HETATM   27  C   UNL     1      32.652   5.534  -9.280  1.00  0.00     0.016 A 
BRANCH  25  28
HETATM   28  N   UNL     1      32.067   6.205  -5.617  1.00  0.00    -0.390 N 
HETATM   29  C   UNL     1      31.049   5.485  -4.862  1.00  0.00     0.149 C 
HETATM   30  C   UNL     1      33.167   6.828  -4.891  1.00  0.00     0.149 C 
ENDBRANCH  25  28
ENDBRANCH  17  22
ENDBRANCH   4  12
BRANCH   6  31
HETATM   31  S   UNL     1      32.375   5.354 -22.137  1.00  0.00     0.131 S 
HETATM   32  O   UNL     1      32.749   4.096 -21.337  1.00  0.00    -0.598 OA
HETATM   33  O   UNL     1      30.841   5.293 -22.080  1.00  0.00    -0.598 OA
BRANCH  31  34
HETATM   34  O   UNL     1      32.752   4.976 -23.771  1.00  0.00    -0.292 OA
HETATM   35  H   UNL     1      32.000   4.411 -24.084  1.00  0.00     0.232 HD
ENDBRANCH  31  34
ENDBRANCH   6  31
TORSDOF 5
ENDMDL
MODEL 7
REMARK VINA RESULT:      -8.6      1.712      2.626
REMARK  5 active torsions:
REMARK  status: ('A' for Active; 'I' for Inactive)
REMARK    1  A    between atoms: S_3  and  O_4 
REMARK    2  A    between atoms: S_3  and  C_15 
REMARK    3  A    between atoms: N_9  and  C_30 
REMARK    4  A    between atoms: C_11  and  C_13 
REMARK    5  A    between atoms: C_18  and  C_25 
ROOT
HETATM    1  S   UNL     1      30.652   9.157  -9.634  1.00  0.00    -0.068 SA
HETATM    2  N   UNL     1      31.251   6.818  -8.896  1.00  0.00    -0.344 N 
HETATM    3  C   UNL     1      30.934   7.538  -7.769  1.00  0.00     0.053 A 
HETATM    4  C   UNL     1      31.170   7.593 -10.030  1.00  0.00     0.087 A 
HETATM    5  C   UNL     1      30.575   8.861  -7.989  1.00  0.00     0.057 A 
HETATM    6  C   UNL     1      30.214   9.735  -6.953  1.00  0.00     0.097 A 
HETATM    7  C   UNL     1      30.222   9.226  -5.629  1.00  0.00    -0.037 A 
HETATM    8  C   UNL     1      30.934   7.036  -6.459  1.00  0.00     0.031 A 
HETATM    9  C   UNL     1      31.563   5.384  -8.823  1.00  0.00     0.157 C 
HETATM   10  C   UNL     1      30.582   7.880  -5.400  1.00  0.00     0.011 A 
HETATM   11  C   UNL     1      29.852  10.091  -4.452  1.00  0.00     0.050 C 
ENDROOT
BRANCH   4  12
HETATM   12  C   UNL     1      31.505   7.220 -11.441  1.00  0.00    -0.001 A 
HETATM   13  C   UNL     1      30.812   7.745 -12.556  1.00  0.00     0.035 A 
HETATM   14  C   UNL     1      31.170   7.324 -13.833  1.00  0.00     0.034 A 
HETATM   15  S   UNL     1      30.516   7.802 -15.292  1.00  0.00    -0.069 SA
HETATM   16  C   UNL     1      32.173   6.403 -14.067  1.00  0.00     0.052 A 
HETATM   17  C   UNL     1      31.528   6.793 -16.210  1.00  0.00     0.087 A 
HETATM   18  N   UNL     1      32.398   6.110 -15.389  1.00  0.00    -0.344 N 
HETATM   19  C   UNL     1      33.491   5.215 -15.797  1.00  0.00     0.157 C 
HETATM   20  C   UNL     1      32.867   5.859 -12.976  1.00  0.00     0.032 A 
HETATM   21  C   UNL     1      32.522   6.260 -11.675  1.00  0.00     0.016 A 
BRANCH  17  22
HETATM   22  C   UNL     1      31.387   6.700 -17.698  1.00  0.00    -0.002 A 
HETATM   23  C   UNL     1      31.057   5.507 -18.365  1.00  0.00     0.016 A 
HETATM   24  C   UNL     1      30.912   5.472 -19.754  1.00  0.00     0.030 A 
HETATM   25  C   UNL     1      31.082   6.633 -20.537  1.00  0.00     0.029 A 
HETATM   26  C   UNL     1      31.392   7.833 -19.864  1.00  0.00     0.030 A 
HETATM   27  C   UNL     1      31.532   7.865 -18.474  1.00  0.00     0.016 A 
BRANCH  25  28
HETATM   28  N   UNL     1      30.933   6.598 -21.973  1.00  0.00    -0.390 N 
HETATM   29  C   UNL     1      30.848   7.833 -22.742  1.00  0.00     0.149 C 
HETATM   30  C   UNL     1      30.861   5.326 -22.681  1.00  0.00     0.149 C 
ENDBRANCH  25  28
ENDBRANCH  17  22
ENDBRANCH   4  12
BRANCH   6  31
HETATM   31  S   UNL     1      29.760  11.448  -7.313  1.00  0.00     0.131 S 
HETATM   32  O   UNL     1      30.882  12.220  -8.025  1.00  0.00    -0.598 OA
HETATM   33  O   UNL     1      28.641  11.522  -8.363  1.00  0.00    -0.598 OA
BRANCH  31  34
HETATM   34  O   UNL     1      29.226  12.489  -6.054  1.00  0.00    -0.292 OA
HETATM   35  H   UNL     1      29.794  12.262  -5.274  1.00  0.00     0.232 HD
ENDBRANCH  31  34
ENDBRANCH   6  31
TORSDOF 5
ENDMDL
MODEL 8
REMARK VINA RESULT:      -8.6      4.772     11.817
REMARK  5 active torsions:
REMARK  status: ('A' for Active; 'I' for Inactive)
REMARK    1  A    between atoms: S_3  and  O_4 
REMARK    2  A    between atoms: S_3  and  C_15 
REMARK    3  A    between atoms: N_9  and  C_30 
REMARK    4  A    between atoms: C_11  and  C_13 
REMARK    5  A    between atoms: C_18  and  C_25 
ROOT
HETATM    1  S   UNL     1      31.253   6.099 -18.398  1.00  0.00    -0.068 SA
HETATM    2  N   UNL     1      31.302   8.525 -17.702  1.00  0.00    -0.344 N 
HETATM    3  C   UNL     1      31.184   8.491 -19.071  1.00  0.00     0.053 A 
HETATM    4  C   UNL     1      31.383   7.260 -17.170  1.00  0.00     0.087 A 
HETATM    5  C   UNL     1      31.141   7.221 -19.633  1.00  0.00     0.057 A 
HETATM    6  C   UNL     1      31.015   7.003 -21.013  1.00  0.00     0.097 A 
HETATM    7  C   UNL     1      30.928   8.141 -21.856  1.00  0.00    -0.037 A 
HETATM    8  C   UNL     1      31.090   9.614 -19.906  1.00  0.00     0.031 A 
HETATM    9  C   UNL     1      31.269   9.797 -16.966  1.00  0.00     0.157 C 
HETATM   10  C   UNL     1      30.966   9.435 -21.288  1.00  0.00     0.011 A 
HETATM   11  C   UNL     1      30.794   8.005 -23.349  1.00  0.00     0.050 C 
ENDROOT
BRANCH   4  12
HETATM   12  C   UNL     1      31.593   6.859 -15.742  1.00  0.00    -0.001 A 
HETATM   13  C   UNL     1      30.861   7.425 -14.673  1.00  0.00     0.035 A 
HETATM   14  C   UNL     1      31.139   7.014 -13.372  1.00  0.00     0.034 A 
HETATM   15  S   UNL     1      30.412   7.520 -11.959  1.00  0.00    -0.069 SA
HETATM   16  C   UNL     1      32.111   6.079 -13.072  1.00  0.00     0.052 A 
HETATM   17  C   UNL     1      31.380   6.535 -10.970  1.00  0.00     0.087 A 
HETATM   18  N   UNL     1      32.245   5.787 -11.737  1.00  0.00    -0.344 N 
HETATM   19  C   UNL     1      33.176   4.748 -11.273  1.00  0.00     0.157 C 
HETATM   20  C   UNL     1      32.859   5.513 -14.114  1.00  0.00     0.032 A 
HETATM   21  C   UNL     1      32.605   5.914 -15.436  1.00  0.00     0.016 A 
BRANCH  17  22
HETATM   22  C   UNL     1      31.259   6.578  -9.478  1.00  0.00    -0.002 A 
HETATM   23  C   UNL     1      30.858   5.470  -8.709  1.00  0.00     0.016 A 
HETATM   24  C   UNL     1      30.782   5.548  -7.316  1.00  0.00     0.030 A 
HETATM   25  C   UNL     1      31.112   6.736  -6.630  1.00  0.00     0.029 A 
HETATM   26  C   UNL     1      31.535   7.838  -7.402  1.00  0.00     0.030 A 
HETATM   27  C   UNL     1      31.613   7.756  -8.795  1.00  0.00     0.016 A 
BRANCH  25  28
HETATM   28  N   UNL     1      31.033   6.817  -5.190  1.00  0.00    -0.390 N 
HETATM   29  C   UNL     1      31.247   5.634  -4.367  1.00  0.00     0.149 C 
HETATM   30  C   UNL     1      30.737   8.083  -4.532  1.00  0.00     0.149 C 
ENDBRANCH  25  28
ENDBRANCH  17  22
ENDBRANCH   4  12
BRANCH   6  31
HETATM   31  S   UNL     1      30.968   5.321 -21.676  1.00  0.00     0.131 S 
HETATM   32  O   UNL     1      29.665   4.585 -21.326  1.00  0.00    -0.598 OA
HETATM   33  O   UNL     1      30.899   5.325 -23.210  1.00  0.00    -0.598 OA
BRANCH  31  34
HETATM   34  O   UNL     1      32.225   4.208 -21.312  1.00  0.00    -0.292 OA
HETATM   35  H   UNL     1      32.823   4.690 -20.685  1.00  0.00     0.232 HD
ENDBRANCH  31  34
ENDBRANCH   6  31
TORSDOF 5
ENDMDL
MODEL 9
REMARK VINA RESULT:      -8.6      1.225      1.331
REMARK  5 active torsions:
REMARK  status: ('A' for Active; 'I' for Inactive)
REMARK    1  A    between atoms: S_3  and  O_4 
REMARK    2  A    between atoms: S_3  and  C_15 
REMARK    3  A    between atoms: N_9  and  C_30 
REMARK    4  A    between atoms: C_11  and  C_13 
REMARK    5  A    between atoms: C_18  and  C_25 
ROOT
HETATM    1  S   UNL     1      30.633   8.656 -11.279  1.00  0.00    -0.068 SA
HETATM    2  N   UNL     1      31.203   6.217 -11.591  1.00  0.00    -0.344 N 
HETATM    3  C   UNL     1      31.214   6.473 -10.241  1.00  0.00     0.053 A 
HETATM    4  C   UNL     1      30.921   7.349 -12.319  1.00  0.00     0.087 A 
HETATM    5  C   UNL     1      30.918   7.782  -9.882  1.00  0.00     0.057 A 
HETATM    6  C   UNL     1      30.877   8.215  -8.548  1.00  0.00     0.097 A 
HETATM    7  C   UNL     1      31.153   7.260  -7.536  1.00  0.00    -0.037 A 
HETATM    8  C   UNL     1      31.479   5.530  -9.237  1.00  0.00     0.031 A 
HETATM    9  C   UNL     1      31.411   4.857 -12.111  1.00  0.00     0.157 C 
HETATM   10  C   UNL     1      31.450   5.927  -7.896  1.00  0.00     0.011 A 
HETATM   11  C   UNL     1      31.135   7.634  -6.077  1.00  0.00     0.050 C 
ENDROOT
BRANCH   4  12
HETATM   12  C   UNL     1      30.888   7.518 -13.807  1.00  0.00    -0.001 A 
HETATM   13  C   UNL     1      31.169   6.462 -14.704  1.00  0.00     0.035 A 
HETATM   14  C   UNL     1      31.142   6.713 -16.072  1.00  0.00     0.034 A 
HETATM   15  S   UNL     1      31.424   5.640 -17.318  1.00  0.00    -0.069 SA
HETATM   16  C   UNL     1      30.861   7.958 -16.602  1.00  0.00     0.052 A 
HETATM   17  C   UNL     1      31.198   6.807 -18.531  1.00  0.00     0.087 A 
HETATM   18  N   UNL     1      30.869   8.022 -17.974  1.00  0.00    -0.344 N 
HETATM   19  C   UNL     1      30.503   9.257 -18.681  1.00  0.00     0.157 C 
HETATM   20  C   UNL     1      30.591   9.024 -15.732  1.00  0.00     0.032 A 
HETATM   21  C   UNL     1      30.618   8.802 -14.346  1.00  0.00     0.016 A 
BRANCH  17  22
HETATM   22  C   UNL     1      31.392   6.469 -19.977  1.00  0.00    -0.002 A 
HETATM   23  C   UNL     1      30.463   5.719 -20.721  1.00  0.00     0.016 A 
HETATM   24  C   UNL     1      30.673   5.447 -22.075  1.00  0.00     0.030 A 
HETATM   25  C   UNL     1      31.819   5.922 -22.748  1.00  0.00     0.029 A 
HETATM   26  C   UNL     1      32.738   6.692 -22.005  1.00  0.00     0.030 A 
HETATM   27  C   UNL     1      32.522   6.965 -20.652  1.00  0.00     0.016 A 
BRANCH  25  28
HETATM   28  N   UNL     1      32.037   5.641 -24.148  1.00  0.00    -0.390 N 
HETATM   29  C   UNL     1      33.381   5.671 -24.712  1.00  0.00     0.149 C 
HETATM   30  C   UNL     1      30.917   5.324 -25.025  1.00  0.00     0.149 C 
ENDBRANCH  25  28
ENDBRANCH  17  22
ENDBRANCH   4  12
BRANCH   6  31
HETATM   31  S   UNL     1      30.486   9.936  -8.154  1.00  0.00     0.131 S 
HETATM   32  O   UNL     1      31.246  10.933  -9.043  1.00  0.00    -0.598 OA
HETATM   33  O   UNL     1      29.031  10.276  -8.509  1.00  0.00    -0.598 OA
BRANCH  31  34
HETATM   34  O   UNL     1      30.678  10.526  -6.551  1.00  0.00    -0.292 OA
HETATM   35  H   UNL     1      30.630   9.722  -5.973  1.00  0.00     0.232 HD
ENDBRANCH  31  34
ENDBRANCH   6  31
TORSDOF 5
ENDMDL
MODEL 10
REMARK VINA RESULT:      -8.6      3.900     11.577
REMARK  5 active torsions:
REMARK  status: ('A' for Active; 'I' for Inactive)
REMARK    1  A    between atoms: S_3  and  O_4 
REMARK    2  A    between atoms: S_3  and  C_15 
REMARK    3  A    between atoms: N_9  and  C_30 
REMARK    4  A    between atoms: C_11  and  C_13 
REMARK    5  A    between atoms: C_18  and  C_25 
ROOT
HETATM    1  S   UNL     1      30.818   8.175 -16.397  1.00  0.00    -0.068 SA
HETATM    2  N   UNL     1      31.958   5.927 -16.529  1.00  0.00    -0.344 N 
HETATM    3  C   UNL     1      31.689   6.329 -17.815  1.00  0.00     0.053 A 
HETATM    4  C   UNL     1      31.505   6.842 -15.608  1.00  0.00     0.087 A 
HETATM    5  C   UNL     1      31.057   7.561 -17.934  1.00  0.00     0.057 A 
HETATM    6  C   UNL     1      30.716   8.126 -19.172  1.00  0.00     0.097 A 
HETATM    7  C   UNL     1      31.041   7.394 -20.343  1.00  0.00    -0.037 A 
HETATM    8  C   UNL     1      32.015   5.612 -18.976  1.00  0.00     0.031 A 
HETATM    9  C   UNL     1      32.702   4.689 -16.257  1.00  0.00     0.157 C 
HETATM   10  C   UNL     1      31.689   6.144 -20.228  1.00  0.00     0.011 A 
HETATM   11  C   UNL     1      30.712   7.920 -21.715  1.00  0.00     0.050 C 
ENDROOT
BRANCH   4  12
HETATM   12  C   UNL     1      31.528   6.752 -14.114  1.00  0.00    -0.001 A 
HETATM   13  C   UNL     1      32.117   7.744 -13.296  1.00  0.00     0.035 A 
HETATM   14  C   UNL     1      32.119   7.569 -11.916  1.00  0.00     0.034 A 
HETATM   15  S   UNL     1      32.735   8.593 -10.752  1.00  0.00    -0.069 SA
HETATM   16  C   UNL     1      31.577   6.457 -11.299  1.00  0.00     0.052 A 
HETATM   17  C   UNL     1      32.310   7.573  -9.462  1.00  0.00     0.087 A 
HETATM   18  N   UNL     1      31.659   6.454  -9.929  1.00  0.00    -0.344 N 
HETATM   19  C   UNL     1      31.049   5.381  -9.131  1.00  0.00     0.157 C 
HETATM   20  C   UNL     1      30.998   5.454 -12.089  1.00  0.00     0.032 A 
HETATM   21  C   UNL     1      30.988   5.601 -13.486  1.00  0.00     0.016 A 
BRANCH  17  22
HETATM   22  C   UNL     1      32.675   7.916  -8.050  1.00  0.00    -0.002 A 
HETATM   23  C   UNL     1      31.747   8.412  -7.117  1.00  0.00     0.016 A 
HETATM   24  C   UNL     1      32.126   8.697  -5.803  1.00  0.00     0.030 A 
HETATM   25  C   UNL     1      33.451   8.489  -5.361  1.00  0.00     0.029 A 
HETATM   26  C   UNL     1      34.374   7.971  -6.294  1.00  0.00     0.030 A 
HETATM   27  C   UNL     1      33.990   7.684  -7.606  1.00  0.00     0.016 A 
BRANCH  25  28
HETATM   28  N   UNL     1      33.843   8.783  -4.003  1.00  0.00    -0.390 N 
HETATM   29  C   UNL     1      33.673   7.790  -2.949  1.00  0.00     0.149 C 
HETATM   30  C   UNL     1      34.415  10.078  -3.659  1.00  0.00     0.149 C 
ENDBRANCH  25  28
ENDBRANCH  17  22
ENDBRANCH   4  12
BRANCH   6  31
HETATM   31  S   UNL     1      29.891   9.733 -19.251  1.00  0.00     0.131 S 
HETATM   32  O   UNL     1      30.808  10.842 -19.794  1.00  0.00    -0.598 OA
HETATM   33  O   UNL     1      28.772   9.737 -20.303  1.00  0.00    -0.598 OA
BRANCH  31  34
HETATM   34  O   UNL     1      29.156  10.403 -17.849  1.00  0.00    -0.292 OA
HETATM   35  H   UNL     1      28.334   9.868 -17.709  1.00  0.00     0.232 HD
ENDBRANCH  31  34
ENDBRANCH   6  31
TORSDOF 5
ENDMDL
MODEL 11
REMARK VINA RESULT:      -8.4      2.950      3.815
REMARK  5 active torsions:
REMARK  status: ('A' for Active; 'I' for Inactive)
REMARK    1  A    between atoms: S_3  and  O_4 
REMARK    2  A    between atoms: S_3  and  C_15 
REMARK    3  A    between atoms: N_9  and  C_30 
REMARK    4  A    between atoms: C_11  and  C_13 
REMARK    5  A    between atoms: C_18  and  C_25 
ROOT
HETATM    1  S   UNL     1      32.119   6.215  -8.985  1.00  0.00    -0.068 SA
HETATM    2  N   UNL     1      30.730   8.283  -9.396  1.00  0.00    -0.344 N 
HETATM    3  C   UNL     1      30.921   8.177  -8.039  1.00  0.00     0.053 A 
HETATM    4  C   UNL     1      31.317   7.240 -10.072  1.00  0.00     0.087 A 
HETATM    5  C   UNL     1      31.673   7.084  -7.627  1.00  0.00     0.057 A 
HETATM    6  C   UNL     1      31.970   6.828  -6.281  1.00  0.00     0.097 A 
HETATM    7  C   UNL     1      31.473   7.736  -5.311  1.00  0.00    -0.037 A 
HETATM    8  C   UNL     1      30.437   9.077  -7.078  1.00  0.00     0.031 A 
HETATM    9  C   UNL     1      30.031   9.436  -9.980  1.00  0.00     0.157 C 
HETATM   10  C   UNL     1      30.712   8.852  -5.725  1.00  0.00     0.011 A 
HETATM   11  C   UNL     1      31.739   7.541  -3.842  1.00  0.00     0.050 C 
ENDROOT
BRANCH   4  12
HETATM   12  C   UNL     1      31.281   6.939 -11.538  1.00  0.00    -0.001 A 
HETATM   13  C   UNL     1      31.864   7.787 -12.509  1.00  0.00     0.035 A 
HETATM   14  C   UNL     1      31.761   7.445 -13.854  1.00  0.00     0.034 A 
HETATM   15  S   UNL     1      32.369   8.269 -15.170  1.00  0.00    -0.069 SA
HETATM   16  C   UNL     1      31.102   6.313 -14.293  1.00  0.00     0.052 A 
HETATM   17  C   UNL     1      31.753   7.158 -16.298  1.00  0.00     0.087 A 
HETATM   18  N   UNL     1      31.105   6.128 -15.653  1.00  0.00    -0.344 N 
HETATM   19  C   UNL     1      30.521   4.924 -16.260  1.00  0.00     0.157 C 
HETATM   20  C   UNL     1      30.505   5.463 -13.351  1.00  0.00     0.032 A 
HETATM   21  C   UNL     1      30.587   5.786 -11.986  1.00  0.00     0.016 A 
BRANCH  17  22
HETATM   22  C   UNL     1      31.913   7.379 -17.771  1.00  0.00    -0.002 A 
HETATM   23  C   UNL     1      30.866   7.825 -18.597  1.00  0.00     0.016 A 
HETATM   24  C   UNL     1      31.066   8.041 -19.963  1.00  0.00     0.030 A 
HETATM   25  C   UNL     1      32.327   7.829 -20.561  1.00  0.00     0.029 A 
HETATM   26  C   UNL     1      33.380   7.404 -19.725  1.00  0.00     0.030 A 
HETATM   27  C   UNL     1      33.177   7.192 -18.359  1.00  0.00     0.016 A 
BRANCH  25  28
HETATM   28  N   UNL     1      32.534   8.053 -21.973  1.00  0.00    -0.390 N 
HETATM   29  C   UNL     1      33.881   8.094 -22.528  1.00  0.00     0.149 C 
HETATM   30  C   UNL     1      31.401   8.243 -22.869  1.00  0.00     0.149 C 
ENDBRANCH  25  28
ENDBRANCH  17  22
ENDBRANCH   4  12
BRANCH   6  31
HETATM   31  S   UNL     1      32.954   5.383  -5.817  1.00  0.00     0.131 S 
HETATM   32  O   UNL     1      34.465   5.663  -5.848  1.00  0.00    -0.598 OA
HETATM   33  O   UNL     1      32.754   5.020  -4.337  1.00  0.00    -0.598 OA
BRANCH  31  34
HETATM   34  O   UNL     1      32.755   3.892  -6.648  1.00  0.00    -0.292 OA
HETATM   35  H   UNL     1      32.786   3.197  -5.942  1.00  0.00     0.232 HD
ENDBRANCH  31  34
ENDBRANCH   6  31
TORSDOF 5
ENDMDL
MODEL 12
REMARK VINA RESULT:      -8.4      4.452     11.499
REMARK  5 active torsions:
REMARK  status: ('A' for Active; 'I' for Inactive)
REMARK    1  A    between atoms: S_3  and  O_4 
REMARK    2  A    between atoms: S_3  and  C_15 
REMARK    3  A    between atoms: N_9  and  C_30 
REMARK    4  A    between atoms: C_11  and  C_13 
REMARK    5  A    between atoms: C_18  and  C_25 
ROOT
HETATM    1  S   UNL     1      30.868   8.958 -18.850  1.00  0.00    -0.068 SA
HETATM    2  N   UNL     1      31.308   6.487 -18.572  1.00  0.00    -0.344 N 
HETATM    3  C   UNL     1      31.173   6.734 -19.918  1.00  0.00     0.053 A 
HETATM    4  C   UNL     1      31.135   7.631 -17.829  1.00  0.00     0.087 A 
HETATM    5  C   UNL     1      30.925   8.057 -20.259  1.00  0.00     0.057 A 
HETATM    6  C   UNL     1      30.769   8.486 -21.585  1.00  0.00     0.097 A 
HETATM    7  C   UNL     1      30.874   7.511 -22.610  1.00  0.00    -0.037 A 
HETATM    8  C   UNL     1      31.283   5.773 -20.934  1.00  0.00     0.031 A 
HETATM    9  C   UNL     1      31.661   5.151 -18.074  1.00  0.00     0.157 C 
HETATM   10  C   UNL     1      31.131   6.164 -22.269  1.00  0.00     0.011 A 
HETATM   11  C   UNL     1      30.717   7.876 -24.062  1.00  0.00     0.050 C 
ENDROOT
BRANCH   4  12
HETATM   12  C   UNL     1      31.124   7.784 -16.340  1.00  0.00    -0.001 A 
HETATM   13  C   UNL     1      31.679   6.819 -15.467  1.00  0.00     0.035 A 
HETATM   14  C   UNL     1      31.603   7.028 -14.093  1.00  0.00     0.034 A 
HETATM   15  S   UNL     1      32.187   6.051 -12.874  1.00  0.00    -0.069 SA
HETATM   16  C   UNL     1      30.998   8.137 -13.534  1.00  0.00     0.052 A 
HETATM   17  C   UNL     1      31.631   7.068 -11.633  1.00  0.00     0.087 A 
HETATM   18  N   UNL     1      31.022   8.184 -12.163  1.00  0.00    -0.344 N 
HETATM   19  C   UNL     1      30.496   9.344 -11.430  1.00  0.00     0.157 C 
HETATM   20  C   UNL     1      30.430   9.102 -14.379  1.00  0.00     0.032 A 
HETATM   21  C   UNL     1      30.486   8.915 -15.770  1.00  0.00     0.016 A 
BRANCH  17  22
HETATM   22  C   UNL     1      31.794   6.693 -10.192  1.00  0.00    -0.002 A 
HETATM   23  C   UNL     1      32.740   7.297  -9.345  1.00  0.00     0.016 A 
HETATM   24  C   UNL     1      32.842   6.933  -8.000  1.00  0.00     0.030 A 
HETATM   25  C   UNL     1      31.993   5.954  -7.440  1.00  0.00     0.029 A 
HETATM   26  C   UNL     1      31.031   5.366  -8.287  1.00  0.00     0.030 A 
HETATM   27  C   UNL     1      30.930   5.735  -9.631  1.00  0.00     0.016 A 
BRANCH  25  28
HETATM   28  N   UNL     1      32.098   5.577  -6.050  1.00  0.00    -0.390 N 
HETATM   29  C   UNL     1      33.403   5.416  -5.420  1.00  0.00     0.149 C 
HETATM   30  C   UNL     1      30.902   5.349  -5.250  1.00  0.00     0.149 C 
ENDBRANCH  25  28
ENDBRANCH  17  22
ENDBRANCH   4  12
BRANCH   6  31
HETATM   31  S   UNL     1      30.445  10.226 -21.955  1.00  0.00     0.131 S 
HETATM   32  O   UNL     1      31.432  10.805 -22.982  1.00  0.00    -0.598 OA
HETATM   33  O   UNL     1      29.112  10.402 -22.698  1.00  0.00    -0.598 OA
BRANCH  31  34
HETATM   34  O   UNL     1      30.380  11.387 -20.690  1.00  0.00    -0.292 OA
HETATM   35  H   UNL     1      31.226  11.269 -20.188  1.00  0.00     0.232 HD
ENDBRANCH  31  34
ENDBRANCH   6  31
TORSDOF 5
ENDMDL
MODEL 13
REMARK VINA RESULT:      -8.4      2.883      4.645
REMARK  5 active torsions:
REMARK  status: ('A' for Active; 'I' for Inactive)
REMARK    1  A    between atoms: S_3  and  O_4 
REMARK    2  A    between atoms: S_3  and  C_15 
REMARK    3  A    between atoms: N_9  and  C_30 
REMARK    4  A    between atoms: C_11  and  C_13 
REMARK    5  A    between atoms: C_18  and  C_25 
ROOT
HETATM    1  S   UNL     1      32.502   8.160  -7.136  1.00  0.00    -0.068 SA
HETATM    2  N   UNL     1      31.069   6.082  -7.182  1.00  0.00    -0.344 N 
HETATM    3  C   UNL     1      31.528   6.239  -5.896  1.00  0.00     0.053 A 
HETATM    4  C   UNL     1      31.550   7.066  -8.013  1.00  0.00     0.087 A 
HETATM    5  C   UNL     1      32.340   7.345  -5.684  1.00  0.00     0.057 A 
HETATM    6  C   UNL     1      32.887   7.660  -4.431  1.00  0.00     0.097 A 
HETATM    7  C   UNL     1      32.586   6.800  -3.344  1.00  0.00    -0.037 A 
HETATM    8  C   UNL     1      31.225   5.394  -4.817  1.00  0.00     0.031 A 
HETATM    9  C   UNL     1      30.129   5.007  -7.530  1.00  0.00     0.157 C 
HETATM   10  C   UNL     1      31.756   5.676  -3.553  1.00  0.00     0.011 A 
HETATM   11  C   UNL     1      33.130   7.056  -1.964  1.00  0.00     0.050 C 
ENDROOT
BRANCH   4  12
HETATM   12  C   UNL     1      31.356   7.217  -9.490  1.00  0.00    -0.001 A 
HETATM   13  C   UNL     1      31.684   6.197 -10.414  1.00  0.00     0.035 A 
HETATM   14  C   UNL     1      31.496   6.430 -11.773  1.00  0.00     0.034 A 
HETATM   15  S   UNL     1      31.795   5.391 -13.043  1.00  0.00    -0.069 SA
HETATM   16  C   UNL     1      31.010   7.625 -12.269  1.00  0.00     0.052 A 
HETATM   17  C   UNL     1      31.308   6.509 -14.226  1.00  0.00     0.087 A 
HETATM   18  N   UNL     1      30.881   7.678 -13.635  1.00  0.00    -0.344 N 
HETATM   19  C   UNL     1      30.296   8.850 -14.301  1.00  0.00     0.157 C 
HETATM   20  C   UNL     1      30.690   8.655 -11.374  1.00  0.00     0.032 A 
HETATM   21  C   UNL     1      30.875   8.450  -9.997  1.00  0.00     0.016 A 
BRANCH  17  22
HETATM   22  C   UNL     1      31.407   6.186 -15.685  1.00  0.00    -0.002 A 
HETATM   23  C   UNL     1      30.442   5.425 -16.369  1.00  0.00     0.016 A 
HETATM   24  C   UNL     1      30.562   5.167 -17.737  1.00  0.00     0.030 A 
HETATM   25  C   UNL     1      31.650   5.669 -18.484  1.00  0.00     0.029 A 
HETATM   26  C   UNL     1      32.604   6.450 -17.799  1.00  0.00     0.030 A 
HETATM   27  C   UNL     1      32.479   6.709 -16.432  1.00  0.00     0.016 A 
BRANCH  25  28
HETATM   28  N   UNL     1      31.774   5.403 -19.898  1.00  0.00    -0.390 N 
HETATM   29  C   UNL     1      30.597   5.391 -20.757  1.00  0.00     0.149 C 
HETATM   30  C   UNL     1      33.078   5.140 -20.492  1.00  0.00     0.149 C 
ENDBRANCH  25  28
ENDBRANCH  17  22
ENDBRANCH   4  12
BRANCH   6  31
HETATM   31  S   UNL     1      33.940   9.117  -4.230  1.00  0.00     0.131 S 
HETATM   32  O   UNL     1      33.133  10.423  -4.160  1.00  0.00    -0.598 OA
HETATM   33  O   UNL     1      34.630   9.124  -2.857  1.00  0.00    -0.598 OA
BRANCH  31  34
HETATM   34  O   UNL     1      35.211   9.432  -5.343  1.00  0.00    -0.292 OA
HETATM   35  H   UNL     1      36.041   9.398  -4.802  1.00  0.00     0.232 HD
ENDBRANCH  31  34
ENDBRANCH   6  31
TORSDOF 5
ENDMDL
MODEL 14
REMARK VINA RESULT:      -8.4      4.994     11.968
REMARK  5 active torsions:
REMARK  status: ('A' for Active; 'I' for Inactive)
REMARK    1  A    between atoms: S_3  and  O_4 
REMARK    2  A    between atoms: S_3  and  C_15 
REMARK    3  A    between atoms: N_9  and  C_30 
REMARK    4  A    between atoms: C_11  and  C_13 
REMARK    5  A    between atoms: C_18  and  C_25 
ROOT
HETATM    1  S   UNL     1      31.281   6.374 -19.468  1.00  0.00    -0.068 SA
HETATM    2  N   UNL     1      30.615   8.744 -18.909  1.00  0.00    -0.344 N 
HETATM    3  C   UNL     1      30.751   8.665 -20.274  1.00  0.00     0.053 A 
HETATM    4  C   UNL     1      30.906   7.545 -18.301  1.00  0.00     0.087 A 
HETATM    5  C   UNL     1      31.118   7.418 -20.765  1.00  0.00     0.057 A 
HETATM    6  C   UNL     1      31.293   7.159 -22.132  1.00  0.00     0.097 A 
HETATM    7  C   UNL     1      31.082   8.230 -23.039  1.00  0.00    -0.037 A 
HETATM    8  C   UNL     1      30.536   9.720 -21.174  1.00  0.00     0.031 A 
HETATM    9  C   UNL     1      30.145   9.976 -18.259  1.00  0.00     0.157 C 
HETATM   10  C   UNL     1      30.705   9.499 -22.545  1.00  0.00     0.011 A 
HETATM   11  C   UNL     1      31.250   8.047 -24.524  1.00  0.00     0.050 C 
ENDROOT
BRANCH   4  12
HETATM   12  C   UNL     1      30.954   7.227 -16.839  1.00  0.00    -0.001 A 
HETATM   13  C   UNL     1      31.281   8.189 -15.856  1.00  0.00     0.035 A 
HETATM   14  C   UNL     1      31.328   7.802 -14.520  1.00  0.00     0.034 A 
HETATM   15  S   UNL     1      31.676   8.746 -13.190  1.00  0.00    -0.069 SA
HETATM   16  C   UNL     1      31.077   6.508 -14.105  1.00  0.00     0.052 A 
HETATM   17  C   UNL     1      31.516   7.461 -12.090  1.00  0.00     0.087 A 
HETATM   18  N   UNL     1      31.159   6.306 -12.749  1.00  0.00    -0.344 N 
HETATM   19  C   UNL     1      30.833   5.004 -12.151  1.00  0.00     0.157 C 
HETATM   20  C   UNL     1      30.762   5.533 -15.062  1.00  0.00     0.032 A 
HETATM   21  C   UNL     1      30.714   5.894 -16.418  1.00  0.00     0.016 A 
BRANCH  17  22
HETATM   22  C   UNL     1      31.788   7.653 -10.630  1.00  0.00    -0.002 A 
HETATM   23  C   UNL     1      33.052   7.443 -10.050  1.00  0.00     0.016 A 
HETATM   24  C   UNL     1      33.266   7.657  -8.686  1.00  0.00     0.030 A 
HETATM   25  C   UNL     1      32.225   8.102  -7.843  1.00  0.00     0.029 A 
HETATM   26  C   UNL     1      30.965   8.333  -8.431  1.00  0.00     0.030 A 
HETATM   27  C   UNL     1      30.755   8.121  -9.796  1.00  0.00     0.016 A 
BRANCH  25  28
HETATM   28  N   UNL     1      32.446   8.324  -6.433  1.00  0.00    -0.390 N 
HETATM   29  C   UNL     1      31.709   9.359  -5.720  1.00  0.00     0.149 C 
HETATM   30  C   UNL     1      33.411   7.518  -5.696  1.00  0.00     0.149 C 
ENDBRANCH  25  28
ENDBRANCH  17  22
ENDBRANCH   4  12
BRANCH   6  31
HETATM   31  S   UNL     1      31.774   5.511 -22.700  1.00  0.00     0.131 S 
HETATM   32  O   UNL     1      30.837   4.965 -23.789  1.00  0.00    -0.598 OA
HETATM   33  O   UNL     1      33.112   5.546 -23.454  1.00  0.00    -0.598 OA
BRANCH  31  34
HETATM   34  O   UNL     1      31.956   4.223 -21.576  1.00  0.00    -0.292 OA
HETATM   35  H   UNL     1      31.051   3.829 -21.487  1.00  0.00     0.232 HD
ENDBRANCH  31  34
ENDBRANCH   6  31
TORSDOF 5
ENDMDL
MODEL 15
REMARK VINA RESULT:      -8.3      1.869      2.405
REMARK  5 active torsions:
REMARK  status: ('A' for Active; 'I' for Inactive)
REMARK    1  A    between atoms: S_3  and  O_4 
REMARK    2  A    between atoms: S_3  and  C_15 
REMARK    3  A    between atoms: N_9  and  C_30 
REMARK    4  A    between atoms: C_11  and  C_13 
REMARK    5  A    between atoms: C_18  and  C_25 
ROOT
HETATM    1  S   UNL     1      30.651   8.224 -11.942  1.00  0.00    -0.068 SA
HETATM    2  N   UNL     1      31.889   6.039 -11.680  1.00  0.00    -0.344 N 
HETATM    3  C   UNL     1      31.664   6.540 -10.420  1.00  0.00     0.053 A 
HETATM    4  C   UNL     1      31.406   6.883 -12.653  1.00  0.00     0.087 A 
HETATM    5  C   UNL     1      30.985   7.751 -10.373  1.00  0.00     0.057 A 
HETATM    6  C   UNL     1      30.665   8.398  -9.171  1.00  0.00     0.097 A 
HETATM    7  C   UNL     1      31.059   7.774  -7.959  1.00  0.00    -0.037 A 
HETATM    8  C   UNL     1      32.045   5.921  -9.220  1.00  0.00     0.031 A 
HETATM    9  C   UNL     1      32.516   4.725 -11.878  1.00  0.00     0.157 C 
HETATM   10  C   UNL     1      31.745   6.540  -8.002  1.00  0.00     0.011 A 
HETATM   11  C   UNL     1      30.762   8.396  -6.621  1.00  0.00     0.050 C 
ENDROOT
BRANCH   4  12
HETATM   12  C   UNL     1      31.513   6.750 -14.140  1.00  0.00    -0.001 A 
HETATM   13  C   UNL     1      32.177   7.702 -14.948  1.00  0.00     0.035 A 
HETATM   14  C   UNL     1      32.207   7.515 -16.327  1.00  0.00     0.034 A 
HETATM   15  S   UNL     1      32.929   8.482 -17.478  1.00  0.00    -0.069 SA
HETATM   16  C   UNL     1      31.605   6.440 -16.952  1.00  0.00     0.052 A 
HETATM   17  C   UNL     1      32.436   7.506 -18.777  1.00  0.00     0.087 A 
HETATM   18  N   UNL     1      31.740   6.410 -18.318  1.00  0.00    -0.344 N 
HETATM   19  C   UNL     1      31.229   5.283 -19.110  1.00  0.00     0.157 C 
HETATM   20  C   UNL     1      30.930   5.489 -16.173  1.00  0.00     0.032 A 
HETATM   21  C   UNL     1      30.878   5.655 -14.780  1.00  0.00     0.016 A 
BRANCH  17  22
HETATM   22  C   UNL     1      32.733   7.893 -20.193  1.00  0.00    -0.002 A 
HETATM   23  C   UNL     1      34.002   7.737 -20.781  1.00  0.00     0.016 A 
HETATM   24  C   UNL     1      34.229   8.090 -22.114  1.00  0.00     0.030 A 
HETATM   25  C   UNL     1      33.192   8.604 -22.921  1.00  0.00     0.029 A 
HETATM   26  C   UNL     1      31.916   8.738 -22.336  1.00  0.00     0.030 A 
HETATM   27  C   UNL     1      31.692   8.381 -21.004  1.00  0.00     0.016 A 
BRANCH  25  28
HETATM   28  N   UNL     1      33.426   8.968 -24.299  1.00  0.00    -0.390 N 
HETATM   29  C   UNL     1      32.575   9.948 -24.964  1.00  0.00     0.149 C 
HETATM   30  C   UNL     1      34.516   8.363 -25.053  1.00  0.00     0.149 C 
ENDBRANCH  25  28
ENDBRANCH  17  22
ENDBRANCH   4  12
BRANCH   6  31
HETATM   31  S   UNL     1      29.781   9.976  -9.185  1.00  0.00     0.131 S 
HETATM   32  O   UNL     1      30.632  11.125  -9.749  1.00  0.00    -0.598 OA
HETATM   33  O   UNL     1      28.615   9.956 -10.185  1.00  0.00    -0.598 OA
BRANCH  31  34
HETATM   34  O   UNL     1      29.087  10.597  -7.740  1.00  0.00    -0.292 OA
HETATM   35  H   UNL     1      29.793  10.496  -7.051  1.00  0.00     0.232 HD
ENDBRANCH  31  34
ENDBRANCH   6  31
TORSDOF 5
ENDMDL
MODEL 16
REMARK VINA RESULT:      -8.3      3.155      4.827
REMARK  5 active torsions:
REMARK  status: ('A' for Active; 'I' for Inactive)
REMARK    1  A    between atoms: S_3  and  O_4 
REMARK    2  A    between atoms: S_3  and  C_15 
REMARK    3  A    between atoms: N_9  and  C_30 
REMARK    4  A    between atoms: C_11  and  C_13 
REMARK    5  A    between atoms: C_18  and  C_25 
ROOT
HETATM    1  S   UNL     1      30.479   9.479  -7.732  1.00  0.00    -0.068 SA
HETATM    2  N   UNL     1      29.645  11.195  -9.384  1.00  0.00    -0.344 N 
HETATM    3  C   UNL     1      29.361  11.663  -8.124  1.00  0.00     0.053 A 
HETATM    4  C   UNL     1      30.251   9.961  -9.340  1.00  0.00     0.087 A 
HETATM    5  C   UNL     1      29.754  10.838  -7.079  1.00  0.00     0.057 A 
HETATM    6  C   UNL     1      29.549  11.165  -5.731  1.00  0.00     0.097 A 
HETATM    7  C   UNL     1      28.910  12.398  -5.441  1.00  0.00    -0.037 A 
HETATM    8  C   UNL     1      28.736  12.885  -7.834  1.00  0.00     0.031 A 
HETATM    9  C   UNL     1      29.367  12.004 -10.580  1.00  0.00     0.157 C 
HETATM   10  C   UNL     1      28.512  13.244  -6.500  1.00  0.00     0.011 A 
HETATM   11  C   UNL     1      28.644  12.832  -4.024  1.00  0.00     0.050 C 
ENDROOT
BRANCH   4  12
HETATM   12  C   UNL     1      30.651   9.076 -10.480  1.00  0.00    -0.001 A 
HETATM   13  C   UNL     1      30.417   9.417 -11.832  1.00  0.00     0.035 A 
HETATM   14  C   UNL     1      30.798   8.524 -12.829  1.00  0.00     0.034 A 
HETATM   15  S   UNL     1      30.639   8.701 -14.480  1.00  0.00    -0.069 SA
HETATM   16  C   UNL     1      31.390   7.305 -12.560  1.00  0.00     0.052 A 
HETATM   17  C   UNL     1      31.323   7.185 -14.827  1.00  0.00     0.087 A 
HETATM   18  N   UNL     1      31.707   6.555 -13.665  1.00  0.00    -0.344 N 
HETATM   19  C   UNL     1      32.421   5.276 -13.539  1.00  0.00     0.157 C 
HETATM   20  C   UNL     1      31.622   6.940 -11.226  1.00  0.00     0.032 A 
HETATM   21  C   UNL     1      31.242   7.818 -10.198  1.00  0.00     0.016 A 
BRANCH  17  22
HETATM   22  C   UNL     1      31.414   6.680 -16.234  1.00  0.00    -0.002 A 
HETATM   23  C   UNL     1      30.553   5.696 -16.753  1.00  0.00     0.016 A 
HETATM   24  C   UNL     1      30.658   5.271 -18.079  1.00  0.00     0.030 A 
HETATM   25  C   UNL     1      31.625   5.819 -18.949  1.00  0.00     0.029 A 
HETATM   26  C   UNL     1      32.473   6.821 -18.432  1.00  0.00     0.030 A 
HETATM   27  C   UNL     1      32.362   7.246 -17.106  1.00  0.00     0.016 A 
BRANCH  25  28
HETATM   28  N   UNL     1      31.735   5.379 -20.321  1.00  0.00    -0.390 N 
HETATM   29  C   UNL     1      33.032   5.038 -20.890  1.00  0.00     0.149 C 
HETATM   30  C   UNL     1      30.550   5.271 -21.163  1.00  0.00     0.149 C 
ENDBRANCH  25  28
ENDBRANCH  17  22
ENDBRANCH   4  12
BRANCH   6  31
HETATM   31  S   UNL     1      30.086  10.040  -4.421  1.00  0.00     0.131 S 
HETATM   32  O   UNL     1      29.836   8.564  -4.771  1.00  0.00    -0.598 OA
HETATM   33  O   UNL     1      31.614  10.049  -4.265  1.00  0.00    -0.598 OA
BRANCH  31  34
HETATM   34  O   UNL     1      29.497  10.228  -2.817  1.00  0.00    -0.292 OA
HETATM   35  H   UNL     1      28.528  10.413  -2.919  1.00  0.00     0.232 HD
ENDBRANCH  31  34
ENDBRANCH   6  31
TORSDOF 5
ENDMDL
MODEL 17
REMARK VINA RESULT:      -8.2      4.511     11.594
REMARK  5 active torsions:
REMARK  status: ('A' for Active; 'I' for Inactive)
REMARK    1  A    between atoms: S_3  and  O_4 
REMARK    2  A    between atoms: S_3  and  C_15 
REMARK    3  A    between atoms: N_9  and  C_30 
REMARK    4  A    between atoms: C_11  and  C_13 
REMARK    5  A    between atoms: C_18  and  C_25 
ROOT
HETATM    1  S   UNL     1      30.586   8.736 -19.506  1.00  0.00    -0.068 SA
HETATM    2  N   UNL     1      31.898   6.606 -19.848  1.00  0.00    -0.344 N 
HETATM    3  C   UNL     1      31.697   7.170 -21.084  1.00  0.00     0.053 A 
HETATM    4  C   UNL     1      31.309   7.350 -18.851  1.00  0.00     0.087 A 
HETATM    5  C   UNL     1      30.985   8.363 -21.087  1.00  0.00     0.057 A 
HETATM    6  C   UNL     1      30.698   9.076 -22.260  1.00  0.00     0.097 A 
HETATM    7  C   UNL     1      31.164   8.541 -23.488  1.00  0.00    -0.037 A 
HETATM    8  C   UNL     1      32.163   6.648 -22.300  1.00  0.00     0.031 A 
HETATM    9  C   UNL     1      32.710   5.392 -19.686  1.00  0.00     0.157 C 
HETATM   10  C   UNL     1      31.892   7.331 -23.491  1.00  0.00     0.011 A 
HETATM   11  C   UNL     1      30.901   9.235 -24.798  1.00  0.00     0.050 C 
ENDROOT
BRANCH   4  12
HETATM   12  C   UNL     1      31.227   7.049 -17.387  1.00  0.00    -0.001 A 
HETATM   13  C   UNL     1      31.800   7.885 -16.400  1.00  0.00     0.035 A 
HETATM   14  C   UNL     1      31.700   7.517 -15.062  1.00  0.00     0.034 A 
HETATM   15  S   UNL     1      32.278   8.334 -13.728  1.00  0.00    -0.069 SA
HETATM   16  C   UNL     1      31.070   6.359 -14.647  1.00  0.00     0.052 A 
HETATM   17  C   UNL     1      31.723   7.166 -12.626  1.00  0.00     0.087 A 
HETATM   18  N   UNL     1      31.058   6.158 -13.289  1.00  0.00    -0.344 N 
HETATM   19  C   UNL     1      30.350   5.017 -12.693  1.00  0.00     0.157 C 
HETATM   20  C   UNL     1      30.505   5.508 -15.607  1.00  0.00     0.032 A 
HETATM   21  C   UNL     1      30.597   5.850 -16.966  1.00  0.00     0.016 A 
BRANCH  17  22
HETATM   22  C   UNL     1      32.005   7.288 -11.160  1.00  0.00    -0.002 A 
HETATM   23  C   UNL     1      33.282   7.088 -10.606  1.00  0.00     0.016 A 
HETATM   24  C   UNL     1      33.505   7.236  -9.234  1.00  0.00     0.030 A 
HETATM   25  C   UNL     1      32.460   7.599  -8.357  1.00  0.00     0.029 A 
HETATM   26  C   UNL     1      31.186   7.820  -8.920  1.00  0.00     0.030 A 
HETATM   27  C   UNL     1      30.968   7.675 -10.293  1.00  0.00     0.016 A 
BRANCH  25  28
HETATM   28  N   UNL     1      32.690   7.752  -6.940  1.00  0.00    -0.390 N 
HETATM   29  C   UNL     1      34.013   8.096  -6.435  1.00  0.00     0.149 C 
HETATM   30  C   UNL     1      31.604   7.563  -5.987  1.00  0.00     0.149 C 
ENDBRANCH  25  28
ENDBRANCH  17  22
ENDBRANCH   4  12
BRANCH   6  31
HETATM   31  S   UNL     1      29.763  10.623 -22.188  1.00  0.00     0.131 S 
HETATM   32  O   UNL     1      30.593  11.836 -22.637  1.00  0.00    -0.598 OA
HETATM   33  O   UNL     1      28.630  10.642 -23.225  1.00  0.00    -0.598 OA
BRANCH  31  34
HETATM   34  O   UNL     1      29.005  11.114 -20.725  1.00  0.00    -0.292 OA
HETATM   35  H   UNL     1      28.040  10.936 -20.864  1.00  0.00     0.232 HD
ENDBRANCH  31  34
ENDBRANCH   6  31
TORSDOF 5
ENDMDL
MODEL 18
REMARK VINA RESULT:      -8.2     31.193     32.107
REMARK  5 active torsions:
REMARK  status: ('A' for Active; 'I' for Inactive)
REMARK    1  A    between atoms: S_3  and  O_4 
REMARK    2  A    between atoms: S_3  and  C_15 
REMARK    3  A    between atoms: N_9  and  C_30 
REMARK    4  A    between atoms: C_11  and  C_13 
REMARK    5  A    between atoms: C_18  and  C_25 
ROOT
HETATM    1  S   UNL     1       7.795 -14.060  -8.615  1.00  0.00    -0.068 SA
HETATM    2  N   UNL     1       8.618 -16.310  -9.410  1.00  0.00    -0.344 N 
HETATM    3  C   UNL     1       8.577 -16.348  -8.037  1.00  0.00     0.053 A 
HETATM    4  C   UNL     1       8.235 -15.081  -9.894  1.00  0.00     0.087 A 
HETATM    5  C   UNL     1       8.141 -15.181  -7.423  1.00  0.00     0.057 A 
HETATM    6  C   UNL     1       8.031 -15.048  -6.031  1.00  0.00     0.097 A 
HETATM    7  C   UNL     1       8.384 -16.166  -5.231  1.00  0.00    -0.037 A 
HETATM    8  C   UNL     1       8.918 -17.454  -7.244  1.00  0.00     0.031 A 
HETATM    9  C   UNL     1       8.973 -17.501 -10.195  1.00  0.00     0.157 C 
HETATM   10  C   UNL     1       8.823 -17.357  -5.851  1.00  0.00     0.011 A 
HETATM   11  C   UNL     1       8.300 -16.116  -3.729  1.00  0.00     0.050 C 
ENDROOT
BRANCH   4  12
HETATM   12  C   UNL     1       8.213 -14.602 -11.313  1.00  0.00    -0.001 A 
HETATM   13  C   UNL     1       8.247 -15.483 -12.419  1.00  0.00     0.035 A 
HETATM   14  C   UNL     1       8.250 -14.952 -13.705  1.00  0.00     0.034 A 
HETATM   15  S   UNL     1       8.275 -15.776 -15.155  1.00  0.00    -0.069 SA
HETATM   16  C   UNL     1       8.232 -13.593 -13.957  1.00  0.00     0.052 A 
HETATM   17  C   UNL     1       8.282 -14.361 -16.094  1.00  0.00     0.087 A 
HETATM   18  N   UNL     1       8.230 -13.248 -15.285  1.00  0.00    -0.344 N 
HETATM   19  C   UNL     1       8.123 -11.844 -15.708  1.00  0.00     0.157 C 
HETATM   20  C   UNL     1       8.211 -12.700 -12.876  1.00  0.00     0.032 A 
HETATM   21  C   UNL     1       8.214 -13.207 -11.567  1.00  0.00     0.016 A 
BRANCH  17  22
HETATM   22  C   UNL     1       8.374 -14.423 -17.588  1.00  0.00    -0.002 A 
HETATM   23  C   UNL     1       9.547 -14.792 -18.269  1.00  0.00     0.016 A 
HETATM   24  C   UNL     1       9.582 -14.860 -19.664  1.00  0.00     0.030 A 
HETATM   25  C   UNL     1       8.439 -14.568 -20.440  1.00  0.00     0.029 A 
HETATM   26  C   UNL     1       7.258 -14.220 -19.752  1.00  0.00     0.030 A 
HETATM   27  C   UNL     1       7.226 -14.157 -18.357  1.00  0.00     0.016 A 
BRANCH  25  28
HETATM   28  N   UNL     1       8.474 -14.638 -21.882  1.00  0.00    -0.390 N 
HETATM   29  C   UNL     1       8.979 -15.827 -22.556  1.00  0.00     0.149 C 
HETATM   30  C   UNL     1       8.006 -13.520 -22.691  1.00  0.00     0.149 C 
ENDBRANCH  25  28
ENDBRANCH  17  22
ENDBRANCH   4  12
BRANCH   6  31
HETATM   31  S   UNL     1       7.458 -13.497  -5.299  1.00  0.00     0.131 S 
HETATM   32  O   UNL     1       8.344 -12.300  -5.682  1.00  0.00    -0.598 OA
HETATM   33  O   UNL     1       6.108 -13.063  -5.890  1.00  0.00    -0.598 OA
BRANCH  31  34
HETATM   34  O   UNL     1       7.237 -13.366  -3.599  1.00  0.00    -0.292 OA
HETATM   35  H   UNL     1       6.493 -12.721  -3.485  1.00  0.00     0.232 HD
ENDBRANCH  31  34
ENDBRANCH   6  31
TORSDOF 5
ENDMDL
MODEL 19
REMARK VINA RESULT:      -8.2     38.457     39.360
REMARK  5 active torsions:
REMARK  status: ('A' for Active; 'I' for Inactive)
REMARK    1  A    between atoms: S_3  and  O_4 
REMARK    2  A    between atoms: S_3  and  C_15 
REMARK    3  A    between atoms: N_9  and  C_30 
REMARK    4  A    between atoms: C_11  and  C_13 
REMARK    5  A    between atoms: C_18  and  C_25 
ROOT
HETATM    1  S   UNL     1      -5.787  16.111  -8.589  1.00  0.00    -0.068 SA
HETATM    2  N   UNL     1      -6.687  18.330  -9.387  1.00  0.00    -0.344 N 
HETATM    3  C   UNL     1      -6.630  18.378  -8.015  1.00  0.00     0.053 A 
HETATM    4  C   UNL     1      -6.274  17.110  -9.868  1.00  0.00     0.087 A 
HETATM    5  C   UNL     1      -6.152  17.228  -7.399  1.00  0.00     0.057 A 
HETATM    6  C   UNL     1      -6.021  17.108  -6.007  1.00  0.00     0.097 A 
HETATM    7  C   UNL     1      -6.397  18.220  -5.210  1.00  0.00    -0.037 A 
HETATM    8  C   UNL     1      -6.994  19.478  -7.224  1.00  0.00     0.031 A 
HETATM    9  C   UNL     1      -7.087  19.505 -10.174  1.00  0.00     0.157 C 
HETATM   10  C   UNL     1      -6.879  19.393  -5.832  1.00  0.00     0.011 A 
HETATM   11  C   UNL     1      -6.294  18.182  -3.709  1.00  0.00     0.050 C 
ENDROOT
BRANCH   4  12
HETATM   12  C   UNL     1      -6.255  16.623 -11.284  1.00  0.00    -0.001 A 
HETATM   13  C   UNL     1      -6.301  17.497 -12.395  1.00  0.00     0.035 A 
HETATM   14  C   UNL     1      -6.306  16.958 -13.678  1.00  0.00     0.034 A 
HETATM   15  S   UNL     1      -6.344  17.774 -15.133  1.00  0.00    -0.069 SA
HETATM   16  C   UNL     1      -6.278  15.598 -13.922  1.00  0.00     0.052 A 
HETATM   17  C   UNL     1      -6.345  16.353 -16.063  1.00  0.00     0.087 A 
HETATM   18  N   UNL     1      -6.280  15.245 -15.248  1.00  0.00    -0.344 N 
HETATM   19  C   UNL     1      -6.165  13.840 -15.663  1.00  0.00     0.157 C 
HETATM   20  C   UNL     1      -6.245  14.712 -12.836  1.00  0.00     0.032 A 
HETATM   21  C   UNL     1      -6.246  15.226 -11.530  1.00  0.00     0.016 A 
BRANCH  17  22
HETATM   22  C   UNL     1      -6.445  16.405 -17.557  1.00  0.00    -0.002 A 
HETATM   23  C   UNL     1      -7.653  16.642 -18.237  1.00  0.00     0.016 A 
HETATM   24  C   UNL     1      -7.696  16.706 -19.632  1.00  0.00     0.030 A 
HETATM   25  C   UNL     1      -6.529  16.545 -20.409  1.00  0.00     0.029 A 
HETATM   26  C   UNL     1      -5.315  16.330 -19.723  1.00  0.00     0.030 A 
HETATM   27  C   UNL     1      -5.275  16.270 -18.327  1.00  0.00     0.016 A 
BRANCH  25  28
HETATM   28  N   UNL     1      -6.573  16.611 -21.851  1.00  0.00    -0.390 N 
HETATM   29  C   UNL     1      -6.994  17.832 -22.526  1.00  0.00     0.149 C 
HETATM   30  C   UNL     1      -6.197  15.458 -22.659  1.00  0.00     0.149 C 
ENDBRANCH  25  28
ENDBRANCH  17  22
ENDBRANCH   4  12
BRANCH   6  31
HETATM   31  S   UNL     1      -5.393  15.579  -5.273  1.00  0.00     0.131 S 
HETATM   32  O   UNL     1      -6.263  14.358  -5.616  1.00  0.00    -0.598 OA
HETATM   33  O   UNL     1      -4.052  15.166  -5.898  1.00  0.00    -0.598 OA
BRANCH  31  34
HETATM   34  O   UNL     1      -5.120  15.475  -3.580  1.00  0.00    -0.292 OA
HETATM   35  H   UNL     1      -5.117  16.414  -3.262  1.00  0.00     0.232 HD
ENDBRANCH  31  34
ENDBRANCH   6  31
TORSDOF 5
ENDMDL
MODEL 20
REMARK VINA RESULT:      -8.1      4.424     12.333
REMARK  5 active torsions:
REMARK  status: ('A' for Active; 'I' for Inactive)
REMARK    1  A    between atoms: S_3  and  O_4 
REMARK    2  A    between atoms: S_3  and  C_15 
REMARK    3  A    between atoms: N_9  and  C_30 
REMARK    4  A    between atoms: C_11  and  C_13 
REMARK    5  A    between atoms: C_18  and  C_25 
ROOT
HETATM    1  S   UNL     1      31.297   6.460 -14.969  1.00  0.00    -0.068 SA
HETATM    2  N   UNL     1      30.564   8.813 -14.421  1.00  0.00    -0.344 N 
HETATM    3  C   UNL     1      30.685   8.726 -15.787  1.00  0.00     0.053 A 
HETATM    4  C   UNL     1      30.901   7.629 -13.807  1.00  0.00     0.087 A 
HETATM    5  C   UNL     1      31.084   7.487 -16.272  1.00  0.00     0.057 A 
HETATM    6  C   UNL     1      31.250   7.222 -17.639  1.00  0.00     0.097 A 
HETATM    7  C   UNL     1      30.994   8.277 -18.552  1.00  0.00    -0.037 A 
HETATM    8  C   UNL     1      30.425   9.765 -16.693  1.00  0.00     0.031 A 
HETATM    9  C   UNL     1      30.065  10.035 -13.776  1.00  0.00     0.157 C 
HETATM   10  C   UNL     1      30.583   9.537 -18.064  1.00  0.00     0.011 A 
HETATM   11  C   UNL     1      31.148   8.086 -20.038  1.00  0.00     0.050 C 
ENDROOT
BRANCH   4  12
HETATM   12  C   UNL     1      30.977   7.325 -12.343  1.00  0.00    -0.001 A 
HETATM   13  C   UNL     1      31.507   8.235 -11.399  1.00  0.00     0.035 A 
HETATM   14  C   UNL     1      31.565   7.862 -10.060  1.00  0.00     0.034 A 
HETATM   15  S   UNL     1      32.130   8.755  -8.769  1.00  0.00    -0.069 SA
HETATM   16  C   UNL     1      31.135   6.630  -9.604  1.00  0.00     0.052 A 
HETATM   17  C   UNL     1      31.830   7.526  -7.636  1.00  0.00     0.087 A 
HETATM   18  N   UNL     1      31.258   6.434  -8.251  1.00  0.00    -0.344 N 
HETATM   19  C   UNL     1      30.763   5.209  -7.610  1.00  0.00     0.157 C 
HETATM   20  C   UNL     1      30.617   5.706 -10.523  1.00  0.00     0.032 A 
HETATM   21  C   UNL     1      30.553   6.053 -11.883  1.00  0.00     0.016 A 
BRANCH  17  22
HETATM   22  C   UNL     1      32.208   7.690  -6.196  1.00  0.00    -0.002 A 
HETATM   23  C   UNL     1      33.512   7.476  -5.716  1.00  0.00     0.016 A 
HETATM   24  C   UNL     1      33.826   7.664  -4.368  1.00  0.00     0.030 A 
HETATM   25  C   UNL     1      32.848   8.085  -3.441  1.00  0.00     0.029 A 
HETATM   26  C   UNL     1      31.547   8.321  -3.929  1.00  0.00     0.030 A 
HETATM   27  C   UNL     1      31.237   8.135  -5.279  1.00  0.00     0.016 A 
BRANCH  25  28
HETATM   28  N   UNL     1      33.172   8.280  -2.047  1.00  0.00    -0.390 N 
HETATM   29  C   UNL     1      32.117   8.378  -1.046  1.00  0.00     0.149 C 
HETATM   30  C   UNL     1      34.560   8.385  -1.614  1.00  0.00     0.149 C 
ENDBRANCH  25  28
ENDBRANCH  17  22
ENDBRANCH   4  12
BRANCH   6  31
HETATM   31  S   UNL     1      31.775   5.584 -18.199  1.00  0.00     0.131 S 
HETATM   32  O   UNL     1      30.932   5.063 -19.374  1.00  0.00    -0.598 OA
HETATM   33  O   UNL     1      33.171   5.631 -18.839  1.00  0.00    -0.598 OA
BRANCH  31  34
HETATM   34  O   UNL     1      31.862   4.273 -17.092  1.00  0.00    -0.292 OA
HETATM   35  H   UNL     1      30.956   3.871 -17.097  1.00  0.00     0.232 HD
ENDBRANCH  31  34
ENDBRANCH   6  31
TORSDOF 5
ENDMDL
