MODEL 1
REMARK VINA RESULT:      -5.7      0.000      0.000
REMARK  14 active torsions:
REMARK  status: ('A' for Active; 'I' for Inactive)
REMARK    1  A    between atoms: O_1  and  C_18 
REMARK    2  A    between atoms: C_3  and  C_4 
REMARK    3  A    between atoms: C_3  and  C_5 
REMARK    4  A    between atoms: C_4  and  C_6 
REMARK    5  A    between atoms: C_5  and  C_7 
REMARK    6  A    between atoms: C_6  and  C_8 
REMARK    7  A    between atoms: C_7  and  C_13 
REMARK    8  A    between atoms: C_8  and  C_15 
REMARK    9  A    between atoms: C_9  and  C_10 
REMARK   10  A    between atoms: C_9  and  C_11 
REMARK   11  A    between atoms: C_10  and  C_12 
REMARK   12  A    between atoms: C_11  and  C_14 
REMARK   13  A    between atoms: C_12  and  C_16 
REMARK   14  A    between atoms: C_15  and  C_18 
ROOT
HETATM    1  O   UNL     1      49.592  -7.116  -5.830  1.00  0.00    -0.776 OA
HETATM    2  H   UNL     1      50.128  -7.811  -6.238  1.00  0.00     0.167 HD
ENDROOT
BRANCH   1   3
HETATM    3  C   UNL     1      48.292  -6.949  -6.153  1.00  0.00     0.139 C 
HETATM    4  O   UNL     1      47.656  -7.886  -6.618  1.00  0.00    -0.650 OA
BRANCH   3   5
HETATM    5  C   UNL     1      47.651  -5.604  -5.931  1.00  0.00     0.110 C 
BRANCH   5   6
HETATM    6  C   UNL     1      47.372  -4.846  -7.238  1.00  0.00     0.010 C 
BRANCH   6   7
HETATM    7  C   UNL     1      46.308  -5.565  -8.075  1.00  0.00     0.001 C 
BRANCH   7   8
HETATM    8  C   UNL     1      46.954  -6.437  -9.157  1.00  0.00     0.000 C 
BRANCH   8   9
HETATM    9  C   UNL     1      46.987  -5.707 -10.506  1.00  0.00     0.000 C 
BRANCH   9  10
HETATM   10  C   UNL     1      48.416  -5.630 -11.056  1.00  0.00     0.004 C 
BRANCH  10  11
HETATM   11  C   UNL     1      48.417  -5.722 -12.591  1.00  0.00     0.027 C 
BRANCH  11  12
HETATM   12  C   UNL     1      47.023  -5.665 -13.167  1.00  0.00    -0.031 C 
HETATM   13  C   UNL     1      46.692  -5.909 -14.449  1.00  0.00    -0.031 C 
BRANCH  13  14
HETATM   14  C   UNL     1      47.648  -6.323 -15.541  1.00  0.00     0.027 C 
BRANCH  14  15
HETATM   15  C   UNL     1      47.494  -5.405 -16.757  1.00  0.00     0.004 C 
BRANCH  15  16
HETATM   16  C   UNL     1      47.559  -6.206 -18.063  1.00  0.00     0.000 C 
BRANCH  16  17
HETATM   17  C   UNL     1      46.719  -5.539 -19.160  1.00  0.00    -0.000 C 
BRANCH  17  18
HETATM   18  C   UNL     1      47.239  -5.913 -20.553  1.00  0.00    -0.005 C 
HETATM   19  C   UNL     1      47.240  -4.704 -21.482  1.00  0.00     0.005 C 
ENDBRANCH  17  18
ENDBRANCH  16  17
ENDBRANCH  15  16
ENDBRANCH  14  15
ENDBRANCH  13  14
ENDBRANCH  11  12
ENDBRANCH  10  11
ENDBRANCH   9  10
ENDBRANCH   8   9
ENDBRANCH   7   8
ENDBRANCH   6   7
ENDBRANCH   5   6
ENDBRANCH   3   5
ENDBRANCH   1   3
TORSDOF 14
ENDMDL
MODEL 2
REMARK VINA RESULT:      -5.2     19.442     20.698
REMARK  14 active torsions:
REMARK  status: ('A' for Active; 'I' for Inactive)
REMARK    1  A    between atoms: O_1  and  C_18 
REMARK    2  A    between atoms: C_3  and  C_4 
REMARK    3  A    between atoms: C_3  and  C_5 
REMARK    4  A    between atoms: C_4  and  C_6 
REMARK    5  A    between atoms: C_5  and  C_7 
REMARK    6  A    between atoms: C_6  and  C_8 
REMARK    7  A    between atoms: C_7  and  C_13 
REMARK    8  A    between atoms: C_8  and  C_15 
REMARK    9  A    between atoms: C_9  and  C_10 
REMARK   10  A    between atoms: C_9  and  C_11 
REMARK   11  A    between atoms: C_10  and  C_12 
REMARK   12  A    between atoms: C_11  and  C_14 
REMARK   13  A    between atoms: C_12  and  C_16 
REMARK   14  A    between atoms: C_15  and  C_18 
ROOT
HETATM    1  O   UNL     1      30.273   4.652 -11.888  1.00  0.00    -0.776 OA
HETATM    2  H   UNL     1      29.782   4.449 -11.079  1.00  0.00     0.167 HD
ENDROOT
BRANCH   1   3
HETATM    3  C   UNL     1      31.562   5.050 -11.847  1.00  0.00     0.139 C 
HETATM    4  O   UNL     1      32.406   4.327 -11.333  1.00  0.00    -0.650 OA
BRANCH   3   5
HETATM    5  C   UNL     1      31.935   6.383 -12.441  1.00  0.00     0.110 C 
BRANCH   5   6
HETATM    6  C   UNL     1      31.870   6.399 -13.976  1.00  0.00     0.010 C 
BRANCH   6   7
HETATM    7  C   UNL     1      32.870   5.407 -14.580  1.00  0.00     0.001 C 
BRANCH   7   8
HETATM    8  C   UNL     1      33.611   6.027 -15.770  1.00  0.00     0.000 C 
BRANCH   8   9
HETATM    9  C   UNL     1      32.783   7.147 -16.411  1.00  0.00     0.000 C 
BRANCH   9  10
HETATM   10  C   UNL     1      31.963   6.619 -17.594  1.00  0.00     0.004 C 
BRANCH  10  11
HETATM   11  C   UNL     1      32.611   5.360 -18.191  1.00  0.00     0.027 C 
BRANCH  11  12
HETATM   12  C   UNL     1      33.175   5.608 -19.569  1.00  0.00    -0.031 C 
HETATM   13  C   UNL     1      32.493   5.509 -20.727  1.00  0.00    -0.031 C 
BRANCH  13  14
HETATM   14  C   UNL     1      31.029   5.171 -20.859  1.00  0.00     0.027 C 
BRANCH  14  15
HETATM   15  C   UNL     1      30.276   6.325 -21.526  1.00  0.00     0.004 C 
BRANCH  15  16
HETATM   16  C   UNL     1      31.022   7.651 -21.339  1.00  0.00     0.000 C 
BRANCH  16  17
HETATM   17  C   UNL     1      30.360   8.508 -20.253  1.00  0.00    -0.000 C 
BRANCH  17  18
HETATM   18  C   UNL     1      31.324   9.582 -19.736  1.00  0.00    -0.005 C 
HETATM   19  C   UNL     1      32.760   9.279 -20.156  1.00  0.00     0.005 C 
ENDBRANCH  17  18
ENDBRANCH  16  17
ENDBRANCH  15  16
ENDBRANCH  14  15
ENDBRANCH  13  14
ENDBRANCH  11  12
ENDBRANCH  10  11
ENDBRANCH   9  10
ENDBRANCH   8   9
ENDBRANCH   7   8
ENDBRANCH   6   7
ENDBRANCH   5   6
ENDBRANCH   3   5
ENDBRANCH   1   3
TORSDOF 14
ENDMDL
MODEL 3
REMARK VINA RESULT:      -5.2     45.660     47.307
REMARK  14 active torsions:
REMARK  status: ('A' for Active; 'I' for Inactive)
REMARK    1  A    between atoms: O_1  and  C_18 
REMARK    2  A    between atoms: C_3  and  C_4 
REMARK    3  A    between atoms: C_3  and  C_5 
REMARK    4  A    between atoms: C_4  and  C_6 
REMARK    5  A    between atoms: C_5  and  C_7 
REMARK    6  A    between atoms: C_6  and  C_8 
REMARK    7  A    between atoms: C_7  and  C_13 
REMARK    8  A    between atoms: C_8  and  C_15 
REMARK    9  A    between atoms: C_9  and  C_10 
REMARK   10  A    between atoms: C_9  and  C_11 
REMARK   11  A    between atoms: C_10  and  C_12 
REMARK   12  A    between atoms: C_11  and  C_14 
REMARK   13  A    between atoms: C_12  and  C_16 
REMARK   14  A    between atoms: C_15  and  C_18 
ROOT
HETATM    1  O   UNL     1       5.705   9.874 -18.934  1.00  0.00    -0.776 OA
HETATM    2  H   UNL     1       6.190  10.532 -19.453  1.00  0.00     0.167 HD
ENDROOT
BRANCH   1   3
HETATM    3  C   UNL     1       4.365   9.940 -18.793  1.00  0.00     0.139 C 
HETATM    4  O   UNL     1       3.882  10.515 -17.826  1.00  0.00    -0.650 OA
BRANCH   3   5
HETATM    5  C   UNL     1       3.488   9.299 -19.837  1.00  0.00     0.110 C 
BRANCH   5   6
HETATM    6  C   UNL     1       4.218   9.043 -21.164  1.00  0.00     0.010 C 
BRANCH   6   7
HETATM    7  C   UNL     1       3.881  10.126 -22.195  1.00  0.00     0.001 C 
BRANCH   7   8
HETATM    8  C   UNL     1       4.592   9.859 -23.526  1.00  0.00     0.000 C 
BRANCH   8   9
HETATM    9  C   UNL     1       3.608   9.347 -24.584  1.00  0.00     0.000 C 
BRANCH   9  10
HETATM   10  C   UNL     1       4.336   8.554 -25.676  1.00  0.00     0.004 C 
BRANCH  10  11
HETATM   11  C   UNL     1       5.498   9.372 -26.264  1.00  0.00     0.027 C 
BRANCH  11  12
HETATM   12  C   UNL     1       5.571   9.259 -27.767  1.00  0.00    -0.031 C 
HETATM   13  C   UNL     1       4.845   9.977 -28.646  1.00  0.00    -0.031 C 
BRANCH  13  14
HETATM   14  C   UNL     1       3.851  11.055 -28.291  1.00  0.00     0.027 C 
BRANCH  14  15
HETATM   15  C   UNL     1       4.358  12.420 -28.765  1.00  0.00     0.004 C 
BRANCH  15  16
HETATM   16  C   UNL     1       5.615  12.271 -29.630  1.00  0.00     0.000 C 
BRANCH  16  17
HETATM   17  C   UNL     1       6.776  13.096 -29.060  1.00  0.00    -0.000 C 
BRANCH  17  18
HETATM   18  C   UNL     1       8.091  12.310 -29.124  1.00  0.00    -0.005 C 
HETATM   19  C   UNL     1       8.402  11.649 -27.785  1.00  0.00     0.005 C 
ENDBRANCH  17  18
ENDBRANCH  16  17
ENDBRANCH  15  16
ENDBRANCH  14  15
ENDBRANCH  13  14
ENDBRANCH  11  12
ENDBRANCH  10  11
ENDBRANCH   9  10
ENDBRANCH   8   9
ENDBRANCH   7   8
ENDBRANCH   6   7
ENDBRANCH   5   6
ENDBRANCH   3   5
ENDBRANCH   1   3
TORSDOF 14
ENDMDL
MODEL 4
REMARK VINA RESULT:      -5.2     20.884     21.765
REMARK  14 active torsions:
REMARK  status: ('A' for Active; 'I' for Inactive)
REMARK    1  A    between atoms: O_1  and  C_18 
REMARK    2  A    between atoms: C_3  and  C_4 
REMARK    3  A    between atoms: C_3  and  C_5 
REMARK    4  A    between atoms: C_4  and  C_6 
REMARK    5  A    between atoms: C_5  and  C_7 
REMARK    6  A    between atoms: C_6  and  C_8 
REMARK    7  A    between atoms: C_7  and  C_13 
REMARK    8  A    between atoms: C_8  and  C_15 
REMARK    9  A    between atoms: C_9  and  C_10 
REMARK   10  A    between atoms: C_9  and  C_11 
REMARK   11  A    between atoms: C_10  and  C_12 
REMARK   12  A    between atoms: C_11  and  C_14 
REMARK   13  A    between atoms: C_12  and  C_16 
REMARK   14  A    between atoms: C_15  and  C_18 
ROOT
HETATM    1  O   UNL     1      29.251  11.441 -14.939  1.00  0.00    -0.776 OA
HETATM    2  H   UNL     1      29.074  11.037 -15.801  1.00  0.00     0.167 HD
ENDROOT
BRANCH   1   3
HETATM    3  C   UNL     1      29.761  10.722 -13.917  1.00  0.00     0.139 C 
HETATM    4  O   UNL     1      29.875  11.234 -12.811  1.00  0.00    -0.650 OA
BRANCH   3   5
HETATM    5  C   UNL     1      30.180   9.296 -14.164  1.00  0.00     0.110 C 
BRANCH   5   6
HETATM    6  C   UNL     1      30.912   8.666 -12.969  1.00  0.00     0.010 C 
BRANCH   6   7
HETATM    7  C   UNL     1      31.006   7.144 -13.122  1.00  0.00     0.001 C 
BRANCH   7   8
HETATM    8  C   UNL     1      32.456   6.703 -13.355  1.00  0.00     0.000 C 
BRANCH   8   9
HETATM    9  C   UNL     1      32.512   5.341 -14.056  1.00  0.00     0.000 C 
BRANCH   9  10
HETATM   10  C   UNL     1      33.364   5.411 -15.329  1.00  0.00     0.004 C 
BRANCH  10  11
HETATM   11  C   UNL     1      32.592   4.857 -16.537  1.00  0.00     0.027 C 
BRANCH  11  12
HETATM   12  C   UNL     1      31.102   5.060 -16.402  1.00  0.00    -0.031 C 
HETATM   13  C   UNL     1      30.438   6.204 -16.658  1.00  0.00    -0.031 C 
BRANCH  13  14
HETATM   14  C   UNL     1      31.056   7.485 -17.165  1.00  0.00     0.027 C 
BRANCH  14  15
HETATM   15  C   UNL     1      30.968   7.548 -18.693  1.00  0.00     0.004 C 
BRANCH  15  16
HETATM   16  C   UNL     1      32.318   7.210 -19.337  1.00  0.00     0.000 C 
BRANCH  16  17
HETATM   17  C   UNL     1      32.151   6.168 -20.450  1.00  0.00    -0.000 C 
BRANCH  17  18
HETATM   18  C   UNL     1      30.816   5.428 -20.313  1.00  0.00    -0.005 C 
HETATM   19  C   UNL     1      30.212   5.126 -21.681  1.00  0.00     0.005 C 
ENDBRANCH  17  18
ENDBRANCH  16  17
ENDBRANCH  15  16
ENDBRANCH  14  15
ENDBRANCH  13  14
ENDBRANCH  11  12
ENDBRANCH  10  11
ENDBRANCH   9  10
ENDBRANCH   8   9
ENDBRANCH   7   8
ENDBRANCH   6   7
ENDBRANCH   5   6
ENDBRANCH   3   5
ENDBRANCH   1   3
TORSDOF 14
ENDMDL
MODEL 5
REMARK VINA RESULT:      -5.1     19.158     20.516
REMARK  14 active torsions:
REMARK  status: ('A' for Active; 'I' for Inactive)
REMARK    1  A    between atoms: O_1  and  C_18 
REMARK    2  A    between atoms: C_3  and  C_4 
REMARK    3  A    between atoms: C_3  and  C_5 
REMARK    4  A    between atoms: C_4  and  C_6 
REMARK    5  A    between atoms: C_5  and  C_7 
REMARK    6  A    between atoms: C_6  and  C_8 
REMARK    7  A    between atoms: C_7  and  C_13 
REMARK    8  A    between atoms: C_8  and  C_15 
REMARK    9  A    between atoms: C_9  and  C_10 
REMARK   10  A    between atoms: C_9  and  C_11 
REMARK   11  A    between atoms: C_10  and  C_12 
REMARK   12  A    between atoms: C_11  and  C_14 
REMARK   13  A    between atoms: C_12  and  C_16 
REMARK   14  A    between atoms: C_15  and  C_18 
ROOT
HETATM    1  O   UNL     1      30.744   4.678  -2.511  1.00  0.00    -0.776 OA
HETATM    2  H   UNL     1      30.430   3.762  -2.528  1.00  0.00     0.167 HD
ENDROOT
BRANCH   1   3
HETATM    3  C   UNL     1      31.933   5.024  -3.046  1.00  0.00     0.139 C 
HETATM    4  O   UNL     1      32.939   5.017  -2.349  1.00  0.00    -0.650 OA
BRANCH   3   5
HETATM    5  C   UNL     1      31.995   5.412  -4.501  1.00  0.00     0.110 C 
BRANCH   5   6
HETATM    6  C   UNL     1      33.328   6.067  -4.894  1.00  0.00     0.010 C 
BRANCH   6   7
HETATM    7  C   UNL     1      33.673   5.775  -6.359  1.00  0.00     0.001 C 
BRANCH   7   8
HETATM    8  C   UNL     1      32.574   4.942  -7.028  1.00  0.00     0.000 C 
BRANCH   8   9
HETATM    9  C   UNL     1      32.472   5.263  -8.524  1.00  0.00     0.000 C 
BRANCH   9  10
HETATM   10  C   UNL     1      31.042   5.662  -8.906  1.00  0.00     0.004 C 
BRANCH  10  11
HETATM   11  C   UNL     1      30.926   7.186  -9.076  1.00  0.00     0.027 C 
BRANCH  11  12
HETATM   12  C   UNL     1      31.049   7.917  -7.762  1.00  0.00    -0.031 C 
HETATM   13  C   UNL     1      31.885   8.942  -7.507  1.00  0.00    -0.031 C 
BRANCH  13  14
HETATM   14  C   UNL     1      32.827   9.576  -8.502  1.00  0.00     0.027 C 
BRANCH  14  15
HETATM   15  C   UNL     1      34.105   8.742  -8.628  1.00  0.00     0.004 C 
BRANCH  15  16
HETATM   16  C   UNL     1      34.580   8.680 -10.085  1.00  0.00     0.000 C 
BRANCH  16  17
HETATM   17  C   UNL     1      34.336   7.290 -10.685  1.00  0.00    -0.000 C 
BRANCH  17  18
HETATM   18  C   UNL     1      33.732   7.397 -12.090  1.00  0.00    -0.005 C 
HETATM   19  C   UNL     1      32.604   8.423 -12.126  1.00  0.00     0.005 C 
ENDBRANCH  17  18
ENDBRANCH  16  17
ENDBRANCH  15  16
ENDBRANCH  14  15
ENDBRANCH  13  14
ENDBRANCH  11  12
ENDBRANCH  10  11
ENDBRANCH   9  10
ENDBRANCH   8   9
ENDBRANCH   7   8
ENDBRANCH   6   7
ENDBRANCH   5   6
ENDBRANCH   3   5
ENDBRANCH   1   3
TORSDOF 14
ENDMDL
MODEL 6
REMARK VINA RESULT:      -5.1     20.719     21.804
REMARK  14 active torsions:
REMARK  status: ('A' for Active; 'I' for Inactive)
REMARK    1  A    between atoms: O_1  and  C_18 
REMARK    2  A    between atoms: C_3  and  C_4 
REMARK    3  A    between atoms: C_3  and  C_5 
REMARK    4  A    between atoms: C_4  and  C_6 
REMARK    5  A    between atoms: C_5  and  C_7 
REMARK    6  A    between atoms: C_6  and  C_8 
REMARK    7  A    between atoms: C_7  and  C_13 
REMARK    8  A    between atoms: C_8  and  C_15 
REMARK    9  A    between atoms: C_9  and  C_10 
REMARK   10  A    between atoms: C_9  and  C_11 
REMARK   11  A    between atoms: C_10  and  C_12 
REMARK   12  A    between atoms: C_11  and  C_14 
REMARK   13  A    between atoms: C_12  and  C_16 
REMARK   14  A    between atoms: C_15  and  C_18 
ROOT
HETATM    1  O   UNL     1      30.572  11.111 -14.639  1.00  0.00    -0.776 OA
HETATM    2  H   UNL     1      31.302  11.288 -14.028  1.00  0.00     0.167 HD
ENDROOT
BRANCH   1   3
HETATM    3  C   UNL     1      29.739  10.065 -14.456  1.00  0.00     0.139 C 
HETATM    4  O   UNL     1      28.574  10.265 -14.136  1.00  0.00    -0.650 OA
BRANCH   3   5
HETATM    5  C   UNL     1      30.266   8.668 -14.652  1.00  0.00     0.110 C 
BRANCH   5   6
HETATM    6  C   UNL     1      30.800   8.037 -13.357  1.00  0.00     0.010 C 
BRANCH   6   7
HETATM    7  C   UNL     1      32.025   7.159 -13.638  1.00  0.00     0.001 C 
BRANCH   7   8
HETATM    8  C   UNL     1      31.625   5.870 -14.363  1.00  0.00     0.000 C 
BRANCH   8   9
HETATM    9  C   UNL     1      32.826   5.249 -15.087  1.00  0.00     0.000 C 
BRANCH   9  10
HETATM   10  C   UNL     1      32.418   4.693 -16.456  1.00  0.00     0.004 C 
BRANCH  10  11
HETATM   11  C   UNL     1      31.066   5.274 -16.902  1.00  0.00     0.027 C 
BRANCH  11  12
HETATM   12  C   UNL     1      31.077   5.693 -18.352  1.00  0.00    -0.031 C 
HETATM   13  C   UNL     1      31.521   6.873 -18.826  1.00  0.00    -0.031 C 
BRANCH  13  14
HETATM   14  C   UNL     1      32.128   7.980 -17.999  1.00  0.00     0.027 C 
BRANCH  14  15
HETATM   15  C   UNL     1      33.656   7.919 -18.069  1.00  0.00     0.004 C 
BRANCH  15  16
HETATM   16  C   UNL     1      34.277   8.050 -16.673  1.00  0.00     0.000 C 
BRANCH  16  17
HETATM   17  C   UNL     1      33.747   9.294 -15.950  1.00  0.00    -0.000 C 
BRANCH  17  18
HETATM   18  C   UNL     1      34.851   9.958 -15.119  1.00  0.00    -0.005 C 
HETATM   19  C   UNL     1      34.630   9.728 -13.627  1.00  0.00     0.005 C 
ENDBRANCH  17  18
ENDBRANCH  16  17
ENDBRANCH  15  16
ENDBRANCH  14  15
ENDBRANCH  13  14
ENDBRANCH  11  12
ENDBRANCH  10  11
ENDBRANCH   9  10
ENDBRANCH   8   9
ENDBRANCH   7   8
ENDBRANCH   6   7
ENDBRANCH   5   6
ENDBRANCH   3   5
ENDBRANCH   1   3
TORSDOF 14
ENDMDL
MODEL 7
REMARK VINA RESULT:      -5.0     45.058     46.537
REMARK  14 active torsions:
REMARK  status: ('A' for Active; 'I' for Inactive)
REMARK    1  A    between atoms: O_1  and  C_18 
REMARK    2  A    between atoms: C_3  and  C_4 
REMARK    3  A    between atoms: C_3  and  C_5 
REMARK    4  A    between atoms: C_4  and  C_6 
REMARK    5  A    between atoms: C_5  and  C_7 
REMARK    6  A    between atoms: C_6  and  C_8 
REMARK    7  A    between atoms: C_7  and  C_13 
REMARK    8  A    between atoms: C_8  and  C_15 
REMARK    9  A    between atoms: C_9  and  C_10 
REMARK   10  A    between atoms: C_9  and  C_11 
REMARK   11  A    between atoms: C_10  and  C_12 
REMARK   12  A    between atoms: C_11  and  C_14 
REMARK   13  A    between atoms: C_12  and  C_16 
REMARK   14  A    between atoms: C_15  and  C_18 
ROOT
HETATM    1  O   UNL     1       2.898   8.558 -20.356  1.00  0.00    -0.776 OA
HETATM    2  H   UNL     1       2.013   8.842 -20.627  1.00  0.00     0.167 HD
ENDROOT
BRANCH   1   3
HETATM    3  C   UNL     1       4.007   9.147 -20.849  1.00  0.00     0.139 C 
HETATM    4  O   UNL     1       5.035   9.161 -20.184  1.00  0.00    -0.650 OA
BRANCH   3   5
HETATM    5  C   UNL     1       3.953   9.778 -22.216  1.00  0.00     0.110 C 
BRANCH   5   6
HETATM    6  C   UNL     1       5.341  10.125 -22.776  1.00  0.00     0.010 C 
BRANCH   6   7
HETATM    7  C   UNL     1       5.461   9.708 -24.246  1.00  0.00     0.001 C 
BRANCH   7   8
HETATM    8  C   UNL     1       4.108   9.248 -24.800  1.00  0.00     0.000 C 
BRANCH   8   9
HETATM    9  C   UNL     1       4.085   9.320 -26.331  1.00  0.00     0.000 C 
BRANCH   9  10
HETATM   10  C   UNL     1       5.502   9.216 -26.909  1.00  0.00     0.004 C 
BRANCH  10  11
HETATM   11  C   UNL     1       5.461   9.079 -28.440  1.00  0.00     0.027 C 
BRANCH  11  12
HETATM   12  C   UNL     1       6.722   9.592 -29.091  1.00  0.00    -0.031 C 
HETATM   13  C   UNL     1       7.876   8.910 -29.216  1.00  0.00    -0.031 C 
BRANCH  13  14
HETATM   14  C   UNL     1       8.111   7.490 -28.763  1.00  0.00     0.027 C 
BRANCH  14  15
HETATM   15  C   UNL     1       7.262   6.521 -29.592  1.00  0.00     0.004 C 
BRANCH  15  16
HETATM   16  C   UNL     1       6.789   5.337 -28.740  1.00  0.00     0.000 C 
BRANCH  16  17
HETATM   17  C   UNL     1       6.685   5.729 -27.261  1.00  0.00    -0.000 C 
BRANCH  17  18
HETATM   18  C   UNL     1       5.287   5.427 -26.710  1.00  0.00    -0.005 C 
HETATM   19  C   UNL     1       4.216   5.661 -27.771  1.00  0.00     0.005 C 
ENDBRANCH  17  18
ENDBRANCH  16  17
ENDBRANCH  15  16
ENDBRANCH  14  15
ENDBRANCH  13  14
ENDBRANCH  11  12
ENDBRANCH  10  11
ENDBRANCH   9  10
ENDBRANCH   8   9
ENDBRANCH   7   8
ENDBRANCH   6   7
ENDBRANCH   5   6
ENDBRANCH   3   5
ENDBRANCH   1   3
TORSDOF 14
ENDMDL
MODEL 8
REMARK VINA RESULT:      -5.0     20.179     20.925
REMARK  14 active torsions:
REMARK  status: ('A' for Active; 'I' for Inactive)
REMARK    1  A    between atoms: O_1  and  C_18 
REMARK    2  A    between atoms: C_3  and  C_4 
REMARK    3  A    between atoms: C_3  and  C_5 
REMARK    4  A    between atoms: C_4  and  C_6 
REMARK    5  A    between atoms: C_5  and  C_7 
REMARK    6  A    between atoms: C_6  and  C_8 
REMARK    7  A    between atoms: C_7  and  C_13 
REMARK    8  A    between atoms: C_8  and  C_15 
REMARK    9  A    between atoms: C_9  and  C_10 
REMARK   10  A    between atoms: C_9  and  C_11 
REMARK   11  A    between atoms: C_10  and  C_12 
REMARK   12  A    between atoms: C_11  and  C_14 
REMARK   13  A    between atoms: C_12  and  C_16 
REMARK   14  A    between atoms: C_15  and  C_18 
ROOT
HETATM    1  O   UNL     1      33.696   6.662  -7.155  1.00  0.00    -0.776 OA
HETATM    2  H   UNL     1      34.642   6.455  -7.153  1.00  0.00     0.167 HD
ENDROOT
BRANCH   1   3
HETATM    3  C   UNL     1      32.904   6.326  -8.195  1.00  0.00     0.139 C 
HETATM    4  O   UNL     1      32.478   5.182  -8.290  1.00  0.00    -0.650 OA
BRANCH   3   5
HETATM    5  C   UNL     1      32.562   7.375  -9.220  1.00  0.00     0.110 C 
BRANCH   5   6
HETATM    6  C   UNL     1      31.052   7.634  -9.337  1.00  0.00     0.010 C 
BRANCH   6   7
HETATM    7  C   UNL     1      30.557   7.372 -10.764  1.00  0.00     0.001 C 
BRANCH   7   8
HETATM    8  C   UNL     1      30.636   5.880 -11.109  1.00  0.00     0.000 C 
BRANCH   8   9
HETATM    9  C   UNL     1      30.810   5.672 -12.619  1.00  0.00     0.000 C 
BRANCH   9  10
HETATM   10  C   UNL     1      32.178   5.057 -12.936  1.00  0.00     0.004 C 
BRANCH  10  11
HETATM   11  C   UNL     1      32.845   5.784 -14.115  1.00  0.00     0.027 C 
BRANCH  11  12
HETATM   12  C   UNL     1      32.542   5.122 -15.438  1.00  0.00    -0.031 C 
HETATM   13  C   UNL     1      31.529   5.445 -16.265  1.00  0.00    -0.031 C 
BRANCH  13  14
HETATM   14  C   UNL     1      30.532   6.556 -16.041  1.00  0.00     0.027 C 
BRANCH  14  15
HETATM   15  C   UNL     1      30.963   7.816 -16.796  1.00  0.00     0.004 C 
BRANCH  15  16
HETATM   16  C   UNL     1      31.392   8.921 -15.823  1.00  0.00     0.000 C 
BRANCH  16  17
HETATM   17  C   UNL     1      30.716   8.745 -14.457  1.00  0.00    -0.000 C 
BRANCH  17  18
HETATM   18  C   UNL     1      30.068  10.054 -13.992  1.00  0.00    -0.005 C 
HETATM   19  C   UNL     1      28.749  10.303 -14.717  1.00  0.00     0.005 C 
ENDBRANCH  17  18
ENDBRANCH  16  17
ENDBRANCH  15  16
ENDBRANCH  14  15
ENDBRANCH  13  14
ENDBRANCH  11  12
ENDBRANCH  10  11
ENDBRANCH   9  10
ENDBRANCH   8   9
ENDBRANCH   7   8
ENDBRANCH   6   7
ENDBRANCH   5   6
ENDBRANCH   3   5
ENDBRANCH   1   3
TORSDOF 14
ENDMDL
MODEL 9
REMARK VINA RESULT:      -5.0     43.367     45.389
REMARK  14 active torsions:
REMARK  status: ('A' for Active; 'I' for Inactive)
REMARK    1  A    between atoms: O_1  and  C_18 
REMARK    2  A    between atoms: C_3  and  C_4 
REMARK    3  A    between atoms: C_3  and  C_5 
REMARK    4  A    between atoms: C_4  and  C_6 
REMARK    5  A    between atoms: C_5  and  C_7 
REMARK    6  A    between atoms: C_6  and  C_8 
REMARK    7  A    between atoms: C_7  and  C_13 
REMARK    8  A    between atoms: C_8  and  C_15 
REMARK    9  A    between atoms: C_9  and  C_10 
REMARK   10  A    between atoms: C_9  and  C_11 
REMARK   11  A    between atoms: C_10  and  C_12 
REMARK   12  A    between atoms: C_11  and  C_14 
REMARK   13  A    between atoms: C_12  and  C_16 
REMARK   14  A    between atoms: C_15  and  C_18 
ROOT
HETATM    1  O   UNL     1       3.108   8.386 -20.461  1.00  0.00    -0.776 OA
HETATM    2  H   UNL     1       2.192   8.490 -20.757  1.00  0.00     0.167 HD
ENDROOT
BRANCH   1   3
HETATM    3  C   UNL     1       4.077   9.238 -20.859  1.00  0.00     0.139 C 
HETATM    4  O   UNL     1       5.152   9.251 -20.274  1.00  0.00    -0.650 OA
BRANCH   3   5
HETATM    5  C   UNL     1       3.809  10.157 -22.022  1.00  0.00     0.110 C 
BRANCH   5   6
HETATM    6  C   UNL     1       4.778   9.943 -23.195  1.00  0.00     0.010 C 
BRANCH   6   7
HETATM    7  C   UNL     1       4.021   9.547 -24.468  1.00  0.00     0.001 C 
BRANCH   7   8
HETATM    8  C   UNL     1       4.945   8.827 -25.456  1.00  0.00     0.000 C 
BRANCH   8   9
HETATM    9  C   UNL     1       4.145   8.209 -26.609  1.00  0.00     0.000 C 
BRANCH   9  10
HETATM   10  C   UNL     1       5.076   7.561 -27.641  1.00  0.00     0.004 C 
BRANCH  10  11
HETATM   11  C   UNL     1       6.048   6.582 -26.963  1.00  0.00     0.027 C 
BRANCH  11  12
HETATM   12  C   UNL     1       5.382   5.278 -26.598  1.00  0.00    -0.031 C 
HETATM   13  C   UNL     1       5.662   4.074 -27.136  1.00  0.00    -0.031 C 
BRANCH  13  14
HETATM   14  C   UNL     1       6.722   3.800 -28.174  1.00  0.00     0.027 C 
BRANCH  14  15
HETATM   15  C   UNL     1       8.089   3.634 -27.504  1.00  0.00     0.004 C 
BRANCH  15  16
HETATM   16  C   UNL     1       7.990   2.736 -26.265  1.00  0.00     0.000 C 
BRANCH  16  17
HETATM   17  C   UNL     1       9.017   1.599 -26.325  1.00  0.00    -0.000 C 
BRANCH  17  18
HETATM   18  C   UNL     1      10.309   2.062 -27.009  1.00  0.00    -0.005 C 
HETATM   19  C   UNL     1      11.456   1.096 -26.729  1.00  0.00     0.005 C 
ENDBRANCH  17  18
ENDBRANCH  16  17
ENDBRANCH  15  16
ENDBRANCH  14  15
ENDBRANCH  13  14
ENDBRANCH  11  12
ENDBRANCH  10  11
ENDBRANCH   9  10
ENDBRANCH   8   9
ENDBRANCH   7   8
ENDBRANCH   6   7
ENDBRANCH   5   6
ENDBRANCH   3   5
ENDBRANCH   1   3
TORSDOF 14
ENDMDL
MODEL 10
REMARK VINA RESULT:      -5.0     66.202     67.346
REMARK  14 active torsions:
REMARK  status: ('A' for Active; 'I' for Inactive)
REMARK    1  A    between atoms: O_1  and  C_18 
REMARK    2  A    between atoms: C_3  and  C_4 
REMARK    3  A    between atoms: C_3  and  C_5 
REMARK    4  A    between atoms: C_4  and  C_6 
REMARK    5  A    between atoms: C_5  and  C_7 
REMARK    6  A    between atoms: C_6  and  C_8 
REMARK    7  A    between atoms: C_7  and  C_13 
REMARK    8  A    between atoms: C_8  and  C_15 
REMARK    9  A    between atoms: C_9  and  C_10 
REMARK   10  A    between atoms: C_9  and  C_11 
REMARK   11  A    between atoms: C_10  and  C_12 
REMARK   12  A    between atoms: C_11  and  C_14 
REMARK   13  A    between atoms: C_12  and  C_16 
REMARK   14  A    between atoms: C_15  and  C_18 
ROOT
HETATM    1  O   UNL     1     -21.399  11.712 -18.960  1.00  0.00    -0.776 OA
HETATM    2  H   UNL     1     -22.085  11.926 -18.311  1.00  0.00     0.167 HD
ENDROOT
BRANCH   1   3
HETATM    3  C   UNL     1     -20.296  12.477 -19.096  1.00  0.00     0.139 C 
HETATM    4  O   UNL     1     -20.410  13.664 -19.372  1.00  0.00    -0.650 OA
BRANCH   3   5
HETATM    5  C   UNL     1     -18.941  11.848 -18.900  1.00  0.00     0.110 C 
BRANCH   5   6
HETATM    6  C   UNL     1     -17.892  12.350 -19.904  1.00  0.00     0.010 C 
BRANCH   6   7
HETATM    7  C   UNL     1     -16.471  12.122 -19.375  1.00  0.00     0.001 C 
BRANCH   7   8
HETATM    8  C   UNL     1     -15.793  10.957 -20.104  1.00  0.00     0.000 C 
BRANCH   8   9
HETATM    9  C   UNL     1     -14.281  11.184 -20.219  1.00  0.00     0.000 C 
BRANCH   9  10
HETATM   10  C   UNL     1     -13.509  10.231 -19.299  1.00  0.00     0.004 C 
BRANCH  10  11
HETATM   11  C   UNL     1     -12.800  11.006 -18.177  1.00  0.00     0.027 C 
BRANCH  11  12
HETATM   12  C   UNL     1     -12.842  10.269 -16.860  1.00  0.00    -0.031 C 
HETATM   13  C   UNL     1     -13.764  10.439 -15.893  1.00  0.00    -0.031 C 
BRANCH  13  14
HETATM   14  C   UNL     1     -14.950  11.369 -15.963  1.00  0.00     0.027 C 
BRANCH  14  15
HETATM   15  C   UNL     1     -16.211  10.594 -16.358  1.00  0.00     0.004 C 
BRANCH  15  16
HETATM   16  C   UNL     1     -17.337  10.821 -15.342  1.00  0.00     0.000 C 
BRANCH  16  17
HETATM   17  C   UNL     1     -17.401  12.291 -14.911  1.00  0.00    -0.000 C 
BRANCH  17  18
HETATM   18  C   UNL     1     -18.800  12.652 -14.398  1.00  0.00    -0.005 C 
HETATM   19  C   UNL     1     -19.585  13.435 -15.446  1.00  0.00     0.005 C 
ENDBRANCH  17  18
ENDBRANCH  16  17
ENDBRANCH  15  16
ENDBRANCH  14  15
ENDBRANCH  13  14
ENDBRANCH  11  12
ENDBRANCH  10  11
ENDBRANCH   9  10
ENDBRANCH   8   9
ENDBRANCH   7   8
ENDBRANCH   6   7
ENDBRANCH   5   6
ENDBRANCH   3   5
ENDBRANCH   1   3
TORSDOF 14
ENDMDL
MODEL 11
REMARK VINA RESULT:      -4.9     20.896     21.940
REMARK  14 active torsions:
REMARK  status: ('A' for Active; 'I' for Inactive)
REMARK    1  A    between atoms: O_1  and  C_18 
REMARK    2  A    between atoms: C_3  and  C_4 
REMARK    3  A    between atoms: C_3  and  C_5 
REMARK    4  A    between atoms: C_4  and  C_6 
REMARK    5  A    between atoms: C_5  and  C_7 
REMARK    6  A    between atoms: C_6  and  C_8 
REMARK    7  A    between atoms: C_7  and  C_13 
REMARK    8  A    between atoms: C_8  and  C_15 
REMARK    9  A    between atoms: C_9  and  C_10 
REMARK   10  A    between atoms: C_9  and  C_11 
REMARK   11  A    between atoms: C_10  and  C_12 
REMARK   12  A    between atoms: C_11  and  C_14 
REMARK   13  A    between atoms: C_12  and  C_16 
REMARK   14  A    between atoms: C_15  and  C_18 
ROOT
HETATM    1  O   UNL     1      28.088  10.305 -14.314  1.00  0.00    -0.776 OA
HETATM    2  H   UNL     1      28.028   9.999 -13.398  1.00  0.00     0.167 HD
ENDROOT
BRANCH   1   3
HETATM    3  C   UNL     1      29.226  10.173 -15.027  1.00  0.00     0.139 C 
HETATM    4  O   UNL     1      29.535  11.031 -15.845  1.00  0.00    -0.650 OA
BRANCH   3   5
HETATM    5  C   UNL     1      30.097   8.966 -14.796  1.00  0.00     0.110 C 
BRANCH   5   6
HETATM    6  C   UNL     1      31.344   9.273 -13.953  1.00  0.00     0.010 C 
BRANCH   6   7
HETATM    7  C   UNL     1      32.041   7.981 -13.511  1.00  0.00     0.001 C 
BRANCH   7   8
HETATM    8  C   UNL     1      31.022   6.862 -13.265  1.00  0.00     0.000 C 
BRANCH   8   9
HETATM    9  C   UNL     1      31.486   5.546 -13.899  1.00  0.00     0.000 C 
BRANCH   9  10
HETATM   10  C   UNL     1      30.709   5.251 -15.188  1.00  0.00     0.004 C 
BRANCH  10  11
HETATM   11  C   UNL     1      31.631   5.338 -16.415  1.00  0.00     0.027 C 
BRANCH  11  12
HETATM   12  C   UNL     1      31.340   6.553 -17.262  1.00  0.00    -0.031 C 
HETATM   13  C   UNL     1      31.368   6.599 -18.608  1.00  0.00    -0.031 C 
BRANCH  13  14
HETATM   14  C   UNL     1      31.657   5.433 -19.521  1.00  0.00     0.027 C 
BRANCH  14  15
HETATM   15  C   UNL     1      33.108   5.486 -20.007  1.00  0.00     0.004 C 
BRANCH  15  16
HETATM   16  C   UNL     1      33.694   6.894 -19.841  1.00  0.00     0.000 C 
BRANCH  16  17
HETATM   17  C   UNL     1      33.833   7.595 -21.198  1.00  0.00    -0.000 C 
BRANCH  17  18
HETATM   18  C   UNL     1      32.758   8.673 -21.372  1.00  0.00    -0.005 C 
HETATM   19  C   UNL     1      31.714   8.248 -22.401  1.00  0.00     0.005 C 
ENDBRANCH  17  18
ENDBRANCH  16  17
ENDBRANCH  15  16
ENDBRANCH  14  15
ENDBRANCH  13  14
ENDBRANCH  11  12
ENDBRANCH  10  11
ENDBRANCH   9  10
ENDBRANCH   8   9
ENDBRANCH   7   8
ENDBRANCH   6   7
ENDBRANCH   5   6
ENDBRANCH   3   5
ENDBRANCH   1   3
TORSDOF 14
ENDMDL
MODEL 12
REMARK VINA RESULT:      -4.9     65.326     66.266
REMARK  14 active torsions:
REMARK  status: ('A' for Active; 'I' for Inactive)
REMARK    1  A    between atoms: O_1  and  C_18 
REMARK    2  A    between atoms: C_3  and  C_4 
REMARK    3  A    between atoms: C_3  and  C_5 
REMARK    4  A    between atoms: C_4  and  C_6 
REMARK    5  A    between atoms: C_5  and  C_7 
REMARK    6  A    between atoms: C_6  and  C_8 
REMARK    7  A    between atoms: C_7  and  C_13 
REMARK    8  A    between atoms: C_8  and  C_15 
REMARK    9  A    between atoms: C_9  and  C_10 
REMARK   10  A    between atoms: C_9  and  C_11 
REMARK   11  A    between atoms: C_10  and  C_12 
REMARK   12  A    between atoms: C_11  and  C_14 
REMARK   13  A    between atoms: C_12  and  C_16 
REMARK   14  A    between atoms: C_15  and  C_18 
ROOT
HETATM    1  O   UNL     1     -18.482   9.895 -10.106  1.00  0.00    -0.776 OA
HETATM    2  H   UNL     1     -18.988   9.318 -10.695  1.00  0.00     0.167 HD
ENDROOT
BRANCH   1   3
HETATM    3  C   UNL     1     -18.809  11.194  -9.942  1.00  0.00     0.139 C 
HETATM    4  O   UNL     1     -19.970  11.504  -9.708  1.00  0.00    -0.650 OA
BRANCH   3   5
HETATM    5  C   UNL     1     -17.730  12.239 -10.052  1.00  0.00     0.110 C 
BRANCH   5   6
HETATM    6  C   UNL     1     -16.371  11.762  -9.518  1.00  0.00     0.010 C 
BRANCH   6   7
HETATM    7  C   UNL     1     -15.385  11.512 -10.666  1.00  0.00     0.001 C 
BRANCH   7   8
HETATM    8  C   UNL     1     -14.943  10.045 -10.702  1.00  0.00     0.000 C 
BRANCH   8   9
HETATM    9  C   UNL     1     -14.795   9.550 -12.146  1.00  0.00     0.000 C 
BRANCH   9  10
HETATM   10  C   UNL     1     -13.330   9.590 -12.595  1.00  0.00     0.004 C 
BRANCH  10  11
HETATM   11  C   UNL     1     -13.223   9.470 -14.125  1.00  0.00     0.027 C 
BRANCH  11  12
HETATM   12  C   UNL     1     -12.784  10.763 -14.767  1.00  0.00    -0.031 C 
HETATM   13  C   UNL     1     -13.553  11.562 -15.532  1.00  0.00    -0.031 C 
BRANCH  13  14
HETATM   14  C   UNL     1     -15.009  11.333 -15.855  1.00  0.00     0.027 C 
BRANCH  14  15
HETATM   15  C   UNL     1     -15.897  11.988 -14.792  1.00  0.00     0.004 C 
BRANCH  15  16
HETATM   16  C   UNL     1     -17.331  11.450 -14.866  1.00  0.00     0.000 C 
BRANCH  16  17
HETATM   17  C   UNL     1     -18.048  11.608 -13.519  1.00  0.00    -0.000 C 
BRANCH  17  18
HETATM   18  C   UNL     1     -19.250  12.550 -13.644  1.00  0.00    -0.005 C 
HETATM   19  C   UNL     1     -19.295  13.205 -15.021  1.00  0.00     0.005 C 
ENDBRANCH  17  18
ENDBRANCH  16  17
ENDBRANCH  15  16
ENDBRANCH  14  15
ENDBRANCH  13  14
ENDBRANCH  11  12
ENDBRANCH  10  11
ENDBRANCH   9  10
ENDBRANCH   8   9
ENDBRANCH   7   8
ENDBRANCH   6   7
ENDBRANCH   5   6
ENDBRANCH   3   5
ENDBRANCH   1   3
TORSDOF 14
ENDMDL
MODEL 13
REMARK VINA RESULT:      -4.8     22.046     24.277
REMARK  14 active torsions:
REMARK  status: ('A' for Active; 'I' for Inactive)
REMARK    1  A    between atoms: O_1  and  C_18 
REMARK    2  A    between atoms: C_3  and  C_4 
REMARK    3  A    between atoms: C_3  and  C_5 
REMARK    4  A    between atoms: C_4  and  C_6 
REMARK    5  A    between atoms: C_5  and  C_7 
REMARK    6  A    between atoms: C_6  and  C_8 
REMARK    7  A    between atoms: C_7  and  C_13 
REMARK    8  A    between atoms: C_8  and  C_15 
REMARK    9  A    between atoms: C_9  and  C_10 
REMARK   10  A    between atoms: C_9  and  C_11 
REMARK   11  A    between atoms: C_10  and  C_12 
REMARK   12  A    between atoms: C_11  and  C_14 
REMARK   13  A    between atoms: C_12  and  C_16 
REMARK   14  A    between atoms: C_15  and  C_18 
ROOT
HETATM    1  O   UNL     1      29.014  11.385 -17.852  1.00  0.00    -0.776 OA
HETATM    2  H   UNL     1      28.916  10.718 -17.157  1.00  0.00     0.167 HD
ENDROOT
BRANCH   1   3
HETATM    3  C   UNL     1      28.803  11.084 -19.151  1.00  0.00     0.139 C 
HETATM    4  O   UNL     1      27.858  10.372 -19.464  1.00  0.00    -0.650 OA
BRANCH   3   5
HETATM    5  C   UNL     1      29.743  11.636 -20.190  1.00  0.00     0.110 C 
BRANCH   5   6
HETATM    6  C   UNL     1      31.208  11.240 -19.951  1.00  0.00     0.010 C 
BRANCH   6   7
HETATM    7  C   UNL     1      31.769  10.458 -21.144  1.00  0.00     0.001 C 
BRANCH   7   8
HETATM    8  C   UNL     1      30.992   9.155 -21.362  1.00  0.00     0.000 C 
BRANCH   8   9
HETATM    9  C   UNL     1      31.691   7.974 -20.677  1.00  0.00     0.000 C 
BRANCH   9  10
HETATM   10  C   UNL     1      30.977   7.591 -19.376  1.00  0.00     0.004 C 
BRANCH  10  11
HETATM   11  C   UNL     1      31.783   8.056 -18.151  1.00  0.00     0.027 C 
BRANCH  11  12
HETATM   12  C   UNL     1      30.902   8.312 -16.953  1.00  0.00    -0.031 C 
HETATM   13  C   UNL     1      30.506   7.389 -16.056  1.00  0.00    -0.031 C 
BRANCH  13  14
HETATM   14  C   UNL     1      30.903   5.933 -16.060  1.00  0.00     0.027 C 
BRANCH  14  15
HETATM   15  C   UNL     1      30.952   5.393 -14.628  1.00  0.00     0.004 C 
BRANCH  15  16
HETATM   16  C   UNL     1      31.892   6.232 -13.754  1.00  0.00     0.000 C 
BRANCH  16  17
HETATM   17  C   UNL     1      31.210   6.633 -12.440  1.00  0.00    -0.000 C 
BRANCH  17  18
HETATM   18  C   UNL     1      30.407   5.463 -11.860  1.00  0.00    -0.005 C 
HETATM   19  C   UNL     1      30.680   5.294 -10.368  1.00  0.00     0.005 C 
ENDBRANCH  17  18
ENDBRANCH  16  17
ENDBRANCH  15  16
ENDBRANCH  14  15
ENDBRANCH  13  14
ENDBRANCH  11  12
ENDBRANCH  10  11
ENDBRANCH   9  10
ENDBRANCH   8   9
ENDBRANCH   7   8
ENDBRANCH   6   7
ENDBRANCH   5   6
ENDBRANCH   3   5
ENDBRANCH   1   3
TORSDOF 14
ENDMDL
MODEL 14
REMARK VINA RESULT:      -4.8      8.810     14.208
REMARK  14 active torsions:
REMARK  status: ('A' for Active; 'I' for Inactive)
REMARK    1  A    between atoms: O_1  and  C_18 
REMARK    2  A    between atoms: C_3  and  C_4 
REMARK    3  A    between atoms: C_3  and  C_5 
REMARK    4  A    between atoms: C_4  and  C_6 
REMARK    5  A    between atoms: C_5  and  C_7 
REMARK    6  A    between atoms: C_6  and  C_8 
REMARK    7  A    between atoms: C_7  and  C_13 
REMARK    8  A    between atoms: C_8  and  C_15 
REMARK    9  A    between atoms: C_9  and  C_10 
REMARK   10  A    between atoms: C_9  and  C_11 
REMARK   11  A    between atoms: C_10  and  C_12 
REMARK   12  A    between atoms: C_11  and  C_14 
REMARK   13  A    between atoms: C_12  and  C_16 
REMARK   14  A    between atoms: C_15  and  C_18 
ROOT
HETATM    1  O   UNL     1      48.931  -7.334  -5.125  1.00  0.00    -0.776 OA
HETATM    2  H   UNL     1      49.645  -7.345  -5.779  1.00  0.00     0.167 HD
ENDROOT
BRANCH   1   3
HETATM    3  C   UNL     1      47.817  -6.596  -5.313  1.00  0.00     0.139 C 
HETATM    4  O   UNL     1      47.454  -6.321  -6.450  1.00  0.00    -0.650 OA
BRANCH   3   5
HETATM    5  C   UNL     1      47.040  -6.125  -4.111  1.00  0.00     0.110 C 
BRANCH   5   6
HETATM    6  C   UNL     1      47.851  -6.186  -2.807  1.00  0.00     0.010 C 
BRANCH   6   7
HETATM    7  C   UNL     1      47.438  -5.061  -1.850  1.00  0.00     0.001 C 
BRANCH   7   8
HETATM    8  C   UNL     1      47.804  -5.409  -0.403  1.00  0.00     0.000 C 
BRANCH   8   9
HETATM    9  C   UNL     1      48.921  -4.497   0.117  1.00  0.00     0.000 C 
BRANCH   9  10
HETATM   10  C   UNL     1      50.302  -5.105  -0.157  1.00  0.00     0.004 C 
BRANCH  10  11
HETATM   11  C   UNL     1      51.362  -4.005  -0.327  1.00  0.00     0.027 C 
BRANCH  11  12
HETATM   12  C   UNL     1      51.121  -2.835   0.596  1.00  0.00    -0.031 C 
HETATM   13  C   UNL     1      51.921  -1.759   0.727  1.00  0.00    -0.031 C 
BRANCH  13  14
HETATM   14  C   UNL     1      53.187  -1.505  -0.053  1.00  0.00     0.027 C 
BRANCH  14  15
HETATM   15  C   UNL     1      54.413  -1.714   0.841  1.00  0.00     0.004 C 
BRANCH  15  16
HETATM   16  C   UNL     1      55.419  -2.666   0.183  1.00  0.00     0.000 C 
BRANCH  16  17
HETATM   17  C   UNL     1      55.452  -4.018   0.907  1.00  0.00    -0.000 C 
BRANCH  17  18
HETATM   18  C   UNL     1      54.773  -5.106   0.069  1.00  0.00    -0.005 C 
HETATM   19  C   UNL     1      54.655  -6.410   0.852  1.00  0.00     0.005 C 
ENDBRANCH  17  18
ENDBRANCH  16  17
ENDBRANCH  15  16
ENDBRANCH  14  15
ENDBRANCH  13  14
ENDBRANCH  11  12
ENDBRANCH  10  11
ENDBRANCH   9  10
ENDBRANCH   8   9
ENDBRANCH   7   8
ENDBRANCH   6   7
ENDBRANCH   5   6
ENDBRANCH   3   5
ENDBRANCH   1   3
TORSDOF 14
ENDMDL
MODEL 15
REMARK VINA RESULT:      -4.8     19.998     20.700
REMARK  14 active torsions:
REMARK  status: ('A' for Active; 'I' for Inactive)
REMARK    1  A    between atoms: O_1  and  C_18 
REMARK    2  A    between atoms: C_3  and  C_4 
REMARK    3  A    between atoms: C_3  and  C_5 
REMARK    4  A    between atoms: C_4  and  C_6 
REMARK    5  A    between atoms: C_5  and  C_7 
REMARK    6  A    between atoms: C_6  and  C_8 
REMARK    7  A    between atoms: C_7  and  C_13 
REMARK    8  A    between atoms: C_8  and  C_15 
REMARK    9  A    between atoms: C_9  and  C_10 
REMARK   10  A    between atoms: C_9  and  C_11 
REMARK   11  A    between atoms: C_10  and  C_12 
REMARK   12  A    between atoms: C_11  and  C_14 
REMARK   13  A    between atoms: C_12  and  C_16 
REMARK   14  A    between atoms: C_15  and  C_18 
ROOT
HETATM    1  O   UNL     1      31.203  10.033  -9.083  1.00  0.00    -0.776 OA
HETATM    2  H   UNL     1      30.668  10.801  -8.834  1.00  0.00     0.167 HD
ENDROOT
BRANCH   1   3
HETATM    3  C   UNL     1      30.640   8.829  -9.317  1.00  0.00     0.139 C 
HETATM    4  O   UNL     1      29.834   8.701 -10.229  1.00  0.00    -0.650 OA
BRANCH   3   5
HETATM    5  C   UNL     1      31.022   7.663  -8.443  1.00  0.00     0.110 C 
BRANCH   5   6
HETATM    6  C   UNL     1      32.524   7.343  -8.486  1.00  0.00     0.010 C 
BRANCH   6   7
HETATM    7  C   UNL     1      32.947   6.871  -9.882  1.00  0.00     0.001 C 
BRANCH   7   8
HETATM    8  C   UNL     1      32.572   5.402 -10.104  1.00  0.00     0.000 C 
BRANCH   8   9
HETATM    9  C   UNL     1      31.594   5.253 -11.276  1.00  0.00     0.000 C 
BRANCH   9  10
HETATM   10  C   UNL     1      32.294   5.519 -12.614  1.00  0.00     0.004 C 
BRANCH  10  11
HETATM   11  C   UNL     1      31.353   6.243 -13.591  1.00  0.00     0.027 C 
BRANCH  11  12
HETATM   12  C   UNL     1      30.777   5.307 -14.626  1.00  0.00    -0.031 C 
HETATM   13  C   UNL     1      30.537   5.614 -15.915  1.00  0.00    -0.031 C 
BRANCH  13  14
HETATM   14  C   UNL     1      30.835   6.938 -16.574  1.00  0.00     0.027 C 
BRANCH  14  15
HETATM   15  C   UNL     1      31.537   6.716 -17.918  1.00  0.00     0.004 C 
BRANCH  15  16
HETATM   16  C   UNL     1      31.107   5.387 -18.550  1.00  0.00     0.000 C 
BRANCH  16  17
HETATM   17  C   UNL     1      31.570   5.297 -20.009  1.00  0.00    -0.000 C 
BRANCH  17  18
HETATM   18  C   UNL     1      30.690   6.161 -20.919  1.00  0.00    -0.005 C 
HETATM   19  C   UNL     1      30.612   5.575 -22.326  1.00  0.00     0.005 C 
ENDBRANCH  17  18
ENDBRANCH  16  17
ENDBRANCH  15  16
ENDBRANCH  14  15
ENDBRANCH  13  14
ENDBRANCH  11  12
ENDBRANCH  10  11
ENDBRANCH   9  10
ENDBRANCH   8   9
ENDBRANCH   7   8
ENDBRANCH   6   7
ENDBRANCH   5   6
ENDBRANCH   3   5
ENDBRANCH   1   3
TORSDOF 14
ENDMDL
MODEL 16
REMARK VINA RESULT:      -4.8     65.174     66.496
REMARK  14 active torsions:
REMARK  status: ('A' for Active; 'I' for Inactive)
REMARK    1  A    between atoms: O_1  and  C_18 
REMARK    2  A    between atoms: C_3  and  C_4 
REMARK    3  A    between atoms: C_3  and  C_5 
REMARK    4  A    between atoms: C_4  and  C_6 
REMARK    5  A    between atoms: C_5  and  C_7 
REMARK    6  A    between atoms: C_6  and  C_8 
REMARK    7  A    between atoms: C_7  and  C_13 
REMARK    8  A    between atoms: C_8  and  C_15 
REMARK    9  A    between atoms: C_9  and  C_10 
REMARK   10  A    between atoms: C_9  and  C_11 
REMARK   11  A    between atoms: C_10  and  C_12 
REMARK   12  A    between atoms: C_11  and  C_14 
REMARK   13  A    between atoms: C_12  and  C_16 
REMARK   14  A    between atoms: C_15  and  C_18 
ROOT
HETATM    1  O   UNL     1     -13.078   9.087  -7.739  1.00  0.00    -0.776 OA
HETATM    2  H   UNL     1     -12.251   8.687  -8.043  1.00  0.00     0.167 HD
ENDROOT
BRANCH   1   3
HETATM    3  C   UNL     1     -13.646   8.724  -6.570  1.00  0.00     0.139 C 
HETATM    4  O   UNL     1     -12.940   8.378  -5.632  1.00  0.00    -0.650 OA
BRANCH   3   5
HETATM    5  C   UNL     1     -15.147   8.754  -6.446  1.00  0.00     0.110 C 
BRANCH   5   6
HETATM    6  C   UNL     1     -15.745  10.148  -6.691  1.00  0.00     0.010 C 
BRANCH   6   7
HETATM    7  C   UNL     1     -14.976  11.221  -5.912  1.00  0.00     0.001 C 
BRANCH   7   8
HETATM    8  C   UNL     1     -15.933  12.122  -5.124  1.00  0.00     0.000 C 
BRANCH   8   9
HETATM    9  C   UNL     1     -17.177  11.346  -4.676  1.00  0.00     0.000 C 
BRANCH   9  10
HETATM   10  C   UNL     1     -18.354  12.294  -4.417  1.00  0.00     0.004 C 
BRANCH  10  11
HETATM   11  C   UNL     1     -19.044  12.685  -5.734  1.00  0.00     0.027 C 
BRANCH  11  12
HETATM   12  C   UNL     1     -19.239  11.500  -6.648  1.00  0.00    -0.031 C 
HETATM   13  C   UNL     1     -19.467  11.559  -7.975  1.00  0.00    -0.031 C 
BRANCH  13  14
HETATM   14  C   UNL     1     -19.529  12.821  -8.800  1.00  0.00     0.027 C 
BRANCH  14  15
HETATM   15  C   UNL     1     -18.498  12.766  -9.932  1.00  0.00     0.004 C 
BRANCH  15  16
HETATM   16  C   UNL     1     -17.197  12.106  -9.460  1.00  0.00     0.000 C 
BRANCH  16  17
HETATM   17  C   UNL     1     -16.278  11.790 -10.646  1.00  0.00    -0.000 C 
BRANCH  17  18
HETATM   18  C   UNL     1     -14.866  11.433 -10.167  1.00  0.00    -0.005 C 
HETATM   19  C   UNL     1     -14.448  10.054 -10.669  1.00  0.00     0.005 C 
ENDBRANCH  17  18
ENDBRANCH  16  17
ENDBRANCH  15  16
ENDBRANCH  14  15
ENDBRANCH  13  14
ENDBRANCH  11  12
ENDBRANCH  10  11
ENDBRANCH   9  10
ENDBRANCH   8   9
ENDBRANCH   7   8
ENDBRANCH   6   7
ENDBRANCH   5   6
ENDBRANCH   3   5
ENDBRANCH   1   3
TORSDOF 14
ENDMDL
MODEL 17
REMARK VINA RESULT:      -4.8     20.260     22.856
REMARK  14 active torsions:
REMARK  status: ('A' for Active; 'I' for Inactive)
REMARK    1  A    between atoms: O_1  and  C_18 
REMARK    2  A    between atoms: C_3  and  C_4 
REMARK    3  A    between atoms: C_3  and  C_5 
REMARK    4  A    between atoms: C_4  and  C_6 
REMARK    5  A    between atoms: C_5  and  C_7 
REMARK    6  A    between atoms: C_6  and  C_8 
REMARK    7  A    between atoms: C_7  and  C_13 
REMARK    8  A    between atoms: C_8  and  C_15 
REMARK    9  A    between atoms: C_9  and  C_10 
REMARK   10  A    between atoms: C_9  and  C_11 
REMARK   11  A    between atoms: C_10  and  C_12 
REMARK   12  A    between atoms: C_11  and  C_14 
REMARK   13  A    between atoms: C_12  and  C_16 
REMARK   14  A    between atoms: C_15  and  C_18 
ROOT
HETATM    1  O   UNL     1      30.164   4.652 -17.467  1.00  0.00    -0.776 OA
HETATM    2  H   UNL     1      29.254   4.607 -17.793  1.00  0.00     0.167 HD
ENDROOT
BRANCH   1   3
HETATM    3  C   UNL     1      31.096   5.407 -18.086  1.00  0.00     0.139 C 
HETATM    4  O   UNL     1      31.311   5.251 -19.281  1.00  0.00    -0.650 OA
BRANCH   3   5
HETATM    5  C   UNL     1      31.853   6.434 -17.285  1.00  0.00     0.110 C 
BRANCH   5   6
HETATM    6  C   UNL     1      31.151   6.813 -15.972  1.00  0.00     0.010 C 
BRANCH   6   7
HETATM    7  C   UNL     1      31.876   6.206 -14.765  1.00  0.00     0.001 C 
BRANCH   7   8
HETATM    8  C   UNL     1      30.963   5.240 -14.003  1.00  0.00     0.000 C 
BRANCH   8   9
HETATM    9  C   UNL     1      31.046   5.480 -12.490  1.00  0.00     0.000 C 
BRANCH   9  10
HETATM   10  C   UNL     1      32.432   5.108 -11.949  1.00  0.00     0.004 C 
BRANCH  10  11
HETATM   11  C   UNL     1      32.474   5.236 -10.418  1.00  0.00     0.027 C 
BRANCH  11  12
HETATM   12  C   UNL     1      31.677   6.418  -9.922  1.00  0.00    -0.031 C 
HETATM   13  C   UNL     1      31.023   6.488  -8.747  1.00  0.00    -0.031 C 
BRANCH  13  14
HETATM   14  C   UNL     1      30.999   5.413  -7.688  1.00  0.00     0.027 C 
BRANCH  14  15
HETATM   15  C   UNL     1      30.574   6.004  -6.341  1.00  0.00     0.004 C 
BRANCH  15  16
HETATM   16  C   UNL     1      31.166   7.404  -6.142  1.00  0.00     0.000 C 
BRANCH  16  17
HETATM   17  C   UNL     1      30.963   7.888  -4.702  1.00  0.00    -0.000 C 
BRANCH  17  18
HETATM   18  C   UNL     1      30.685   9.395  -4.663  1.00  0.00    -0.005 C 
HETATM   19  C   UNL     1      29.240   9.698  -5.045  1.00  0.00     0.005 C 
ENDBRANCH  17  18
ENDBRANCH  16  17
ENDBRANCH  15  16
ENDBRANCH  14  15
ENDBRANCH  13  14
ENDBRANCH  11  12
ENDBRANCH  10  11
ENDBRANCH   9  10
ENDBRANCH   8   9
ENDBRANCH   7   8
ENDBRANCH   6   7
ENDBRANCH   5   6
ENDBRANCH   3   5
ENDBRANCH   1   3
TORSDOF 14
ENDMDL
MODEL 18
REMARK VINA RESULT:      -4.7     67.702     68.887
REMARK  14 active torsions:
REMARK  status: ('A' for Active; 'I' for Inactive)
REMARK    1  A    between atoms: O_1  and  C_18 
REMARK    2  A    between atoms: C_3  and  C_4 
REMARK    3  A    between atoms: C_3  and  C_5 
REMARK    4  A    between atoms: C_4  and  C_6 
REMARK    5  A    between atoms: C_5  and  C_7 
REMARK    6  A    between atoms: C_6  and  C_8 
REMARK    7  A    between atoms: C_7  and  C_13 
REMARK    8  A    between atoms: C_8  and  C_15 
REMARK    9  A    between atoms: C_9  and  C_10 
REMARK   10  A    between atoms: C_9  and  C_11 
REMARK   11  A    between atoms: C_10  and  C_12 
REMARK   12  A    between atoms: C_11  and  C_14 
REMARK   13  A    between atoms: C_12  and  C_16 
REMARK   14  A    between atoms: C_15  and  C_18 
ROOT
HETATM    1  O   UNL     1     -21.436  11.625 -18.885  1.00  0.00    -0.776 OA
HETATM    2  H   UNL     1     -22.171  11.899 -18.318  1.00  0.00     0.167 HD
ENDROOT
BRANCH   1   3
HETATM    3  C   UNL     1     -20.512  12.508 -19.317  1.00  0.00     0.139 C 
HETATM    4  O   UNL     1     -20.846  13.427 -20.054  1.00  0.00    -0.650 OA
BRANCH   3   5
HETATM    5  C   UNL     1     -19.081  12.343 -18.875  1.00  0.00     0.110 C 
BRANCH   5   6
HETATM    6  C   UNL     1     -18.076  12.452 -20.032  1.00  0.00     0.010 C 
BRANCH   6   7
HETATM    7  C   UNL     1     -16.658  12.103 -19.564  1.00  0.00     0.001 C 
BRANCH   7   8
HETATM    8  C   UNL     1     -16.568  10.637 -19.129  1.00  0.00     0.000 C 
BRANCH   8   9
HETATM    9  C   UNL     1     -15.328  10.395 -18.260  1.00  0.00     0.000 C 
BRANCH   9  10
HETATM   10  C   UNL     1     -15.714  10.213 -16.787  1.00  0.00     0.004 C 
BRANCH  10  11
HETATM   11  C   UNL     1     -15.185  11.378 -15.934  1.00  0.00     0.027 C 
BRANCH  11  12
HETATM   12  C   UNL     1     -15.724  11.343 -14.525  1.00  0.00    -0.031 C 
HETATM   13  C   UNL     1     -16.889  11.881 -14.116  1.00  0.00    -0.031 C 
BRANCH  13  14
HETATM   14  C   UNL     1     -17.891  12.584 -14.998  1.00  0.00     0.027 C 
BRANCH  14  15
HETATM   15  C   UNL     1     -19.037  11.636 -15.361  1.00  0.00     0.004 C 
BRANCH  15  16
HETATM   16  C   UNL     1     -20.307  11.978 -14.572  1.00  0.00     0.000 C 
BRANCH  16  17
HETATM   17  C   UNL     1     -20.249  13.412 -14.032  1.00  0.00    -0.000 C 
BRANCH  17  18
HETATM   18  C   UNL     1     -20.445  13.435 -12.512  1.00  0.00    -0.005 C 
HETATM   19  C   UNL     1     -20.563  12.020 -11.952  1.00  0.00     0.005 C 
ENDBRANCH  17  18
ENDBRANCH  16  17
ENDBRANCH  15  16
ENDBRANCH  14  15
ENDBRANCH  13  14
ENDBRANCH  11  12
ENDBRANCH  10  11
ENDBRANCH   9  10
ENDBRANCH   8   9
ENDBRANCH   7   8
ENDBRANCH   6   7
ENDBRANCH   5   6
ENDBRANCH   3   5
ENDBRANCH   1   3
TORSDOF 14
ENDMDL
MODEL 19
REMARK VINA RESULT:      -4.7     67.785     68.651
REMARK  14 active torsions:
REMARK  status: ('A' for Active; 'I' for Inactive)
REMARK    1  A    between atoms: O_1  and  C_18 
REMARK    2  A    between atoms: C_3  and  C_4 
REMARK    3  A    between atoms: C_3  and  C_5 
REMARK    4  A    between atoms: C_4  and  C_6 
REMARK    5  A    between atoms: C_5  and  C_7 
REMARK    6  A    between atoms: C_6  and  C_8 
REMARK    7  A    between atoms: C_7  and  C_13 
REMARK    8  A    between atoms: C_8  and  C_15 
REMARK    9  A    between atoms: C_9  and  C_10 
REMARK   10  A    between atoms: C_9  and  C_11 
REMARK   11  A    between atoms: C_10  and  C_12 
REMARK   12  A    between atoms: C_11  and  C_14 
REMARK   13  A    between atoms: C_12  and  C_16 
REMARK   14  A    between atoms: C_15  and  C_18 
ROOT
HETATM    1  O   UNL     1     -23.566  14.322 -11.827  1.00  0.00    -0.776 OA
HETATM    2  H   UNL     1     -23.835  14.678 -12.686  1.00  0.00     0.167 HD
ENDROOT
BRANCH   1   3
HETATM    3  C   UNL     1     -22.595  13.391 -11.724  1.00  0.00     0.139 C 
HETATM    4  O   UNL     1     -22.139  13.106 -10.624  1.00  0.00    -0.650 OA
BRANCH   3   5
HETATM    5  C   UNL     1     -22.091  12.720 -12.975  1.00  0.00     0.110 C 
BRANCH   5   6
HETATM    6  C   UNL     1     -20.561  12.597 -13.020  1.00  0.00     0.010 C 
BRANCH   6   7
HETATM    7  C   UNL     1     -19.955  13.616 -13.992  1.00  0.00     0.001 C 
BRANCH   7   8
HETATM    8  C   UNL     1     -19.825  13.025 -15.400  1.00  0.00     0.000 C 
BRANCH   8   9
HETATM    9  C   UNL     1     -18.698  11.987 -15.460  1.00  0.00     0.000 C 
BRANCH   9  10
HETATM   10  C   UNL     1     -17.404  12.543 -14.855  1.00  0.00     0.004 C 
BRANCH  10  11
HETATM   11  C   UNL     1     -16.426  11.407 -14.513  1.00  0.00     0.027 C 
BRANCH  11  12
HETATM   12  C   UNL     1     -16.607  10.209 -15.413  1.00  0.00    -0.031 C 
HETATM   13  C   UNL     1     -15.775   9.838 -16.405  1.00  0.00    -0.031 C 
BRANCH  13  14
HETATM   14  C   UNL     1     -14.484  10.527 -16.774  1.00  0.00     0.027 C 
BRANCH  14  15
HETATM   15  C   UNL     1     -14.553  11.046 -18.213  1.00  0.00     0.004 C 
BRANCH  15  16
HETATM   16  C   UNL     1     -15.917  10.743 -18.844  1.00  0.00     0.000 C 
BRANCH  16  17
HETATM   17  C   UNL     1     -16.342  11.862 -19.803  1.00  0.00    -0.000 C 
BRANCH  17  18
HETATM   18  C   UNL     1     -17.736  12.390 -19.448  1.00  0.00    -0.005 C 
HETATM   19  C   UNL     1     -18.641  11.265 -18.955  1.00  0.00     0.005 C 
ENDBRANCH  17  18
ENDBRANCH  16  17
ENDBRANCH  15  16
ENDBRANCH  14  15
ENDBRANCH  13  14
ENDBRANCH  11  12
ENDBRANCH  10  11
ENDBRANCH   9  10
ENDBRANCH   8   9
ENDBRANCH   7   8
ENDBRANCH   6   7
ENDBRANCH   5   6
ENDBRANCH   3   5
ENDBRANCH   1   3
TORSDOF 14
ENDMDL
MODEL 20
REMARK VINA RESULT:      -4.6     20.291     22.259
REMARK  14 active torsions:
REMARK  status: ('A' for Active; 'I' for Inactive)
REMARK    1  A    between atoms: O_1  and  C_18 
REMARK    2  A    between atoms: C_3  and  C_4 
REMARK    3  A    between atoms: C_3  and  C_5 
REMARK    4  A    between atoms: C_4  and  C_6 
REMARK    5  A    between atoms: C_5  and  C_7 
REMARK    6  A    between atoms: C_6  and  C_8 
REMARK    7  A    between atoms: C_7  and  C_13 
REMARK    8  A    between atoms: C_8  and  C_15 
REMARK    9  A    between atoms: C_9  and  C_10 
REMARK   10  A    between atoms: C_9  and  C_11 
REMARK   11  A    between atoms: C_10  and  C_12 
REMARK   12  A    between atoms: C_11  and  C_14 
REMARK   13  A    between atoms: C_12  and  C_16 
REMARK   14  A    between atoms: C_15  and  C_18 
ROOT
HETATM    1  O   UNL     1      34.021  10.940 -21.766  1.00  0.00    -0.776 OA
HETATM    2  H   UNL     1      33.697  11.831 -21.573  1.00  0.00     0.167 HD
ENDROOT
BRANCH   1   3
HETATM    3  C   UNL     1      33.192   9.875 -21.767  1.00  0.00     0.139 C 
HETATM    4  O   UNL     1      32.288   9.808 -22.590  1.00  0.00    -0.650 OA
BRANCH   3   5
HETATM    5  C   UNL     1      33.402   8.785 -20.749  1.00  0.00     0.110 C 
BRANCH   5   6
HETATM    6  C   UNL     1      34.281   7.636 -21.267  1.00  0.00     0.010 C 
BRANCH   6   7
HETATM    7  C   UNL     1      33.421   6.472 -21.774  1.00  0.00     0.001 C 
BRANCH   7   8
HETATM    8  C   UNL     1      33.399   5.322 -20.761  1.00  0.00     0.000 C 
BRANCH   8   9
HETATM    9  C   UNL     1      32.303   5.536 -19.709  1.00  0.00     0.000 C 
BRANCH   9  10
HETATM   10  C   UNL     1      32.910   5.847 -18.336  1.00  0.00     0.004 C 
BRANCH  10  11
HETATM   11  C   UNL     1      32.323   4.923 -17.256  1.00  0.00     0.027 C 
BRANCH  11  12
HETATM   12  C   UNL     1      30.857   5.187 -17.016  1.00  0.00    -0.031 C 
HETATM   13  C   UNL     1      30.346   6.243 -16.353  1.00  0.00    -0.031 C 
BRANCH  13  14
HETATM   14  C   UNL     1      31.144   7.378 -15.761  1.00  0.00     0.027 C 
BRANCH  14  15
HETATM   15  C   UNL     1      31.593   7.027 -14.339  1.00  0.00     0.004 C 
BRANCH  15  16
HETATM   16  C   UNL     1      33.111   6.820 -14.277  1.00  0.00     0.000 C 
BRANCH  16  17
HETATM   17  C   UNL     1      33.858   8.094 -14.690  1.00  0.00    -0.000 C 
BRANCH  17  18
HETATM   18  C   UNL     1      34.762   7.833 -15.900  1.00  0.00    -0.005 C 
HETATM   19  C   UNL     1      34.630   8.945 -16.936  1.00  0.00     0.005 C 
ENDBRANCH  17  18
ENDBRANCH  16  17
ENDBRANCH  15  16
ENDBRANCH  14  15
ENDBRANCH  13  14
ENDBRANCH  11  12
ENDBRANCH  10  11
ENDBRANCH   9  10
ENDBRANCH   8   9
ENDBRANCH   7   8
ENDBRANCH   6   7
ENDBRANCH   5   6
ENDBRANCH   3   5
ENDBRANCH   1   3
TORSDOF 14
ENDMDL
