MODEL 1
REMARK VINA RESULT:      -5.0      0.000      0.000
REMARK  15 active torsions:
REMARK  status: ('A' for Active; 'I' for Inactive)
REMARK    1  A    between atoms: O_1  and  C_23 
REMARK    2  A    between atoms: C_3  and  C_7 
REMARK    3  A    between atoms: C_3  and  C_8 
REMARK    4  A    between atoms: C_4  and  C_10 
REMARK    5  A    between atoms: C_4  and  C_11 
REMARK    6  A    between atoms: C_5  and  C_12 
REMARK    7  A    between atoms: C_5  and  C_13 
REMARK    8  A    between atoms: C_6  and  C_15 
REMARK    9  A    between atoms: C_6  and  C_16 
REMARK   10  A    between atoms: C_7  and  C_23 
REMARK   11  A    between atoms: C_9  and  C_17 
REMARK   12  A    between atoms: C_9  and  C_18 
REMARK   13  A    between atoms: C_14  and  C_19 
REMARK   14  A    between atoms: C_14  and  C_20 
REMARK   15  A    between atoms: C_21  and  C_22 
ROOT
HETATM    1  O   UNL     1      27.956  10.463 -19.296  1.00  0.00    -0.776 OA
HETATM    2  H   UNL     1      27.671   9.607 -19.643  1.00  0.00     0.167 HD
ENDROOT
BRANCH   1   3
HETATM    3  C   UNL     1      29.257  10.722 -19.040  1.00  0.00     0.139 C 
HETATM    4  O   UNL     1      30.000  11.074 -19.945  1.00  0.00    -0.650 OA
BRANCH   3   5
HETATM    5  C   UNL     1      29.785  10.578 -17.641  1.00  0.00     0.113 C 
BRANCH   5   6
HETATM    6  C   UNL     1      30.887   9.514 -17.579  1.00  0.00     0.037 C 
BRANCH   6   7
HETATM    7  C   UNL     1      32.164  10.102 -17.030  1.00  0.00    -0.030 C 
HETATM    8  C   UNL     1      33.333   9.458 -16.825  1.00  0.00    -0.027 C 
BRANCH   8   9
HETATM    9  C   UNL     1      33.642   8.001 -17.096  1.00  0.00     0.053 C 
BRANCH   9  10
HETATM   10  C   UNL     1      34.237   7.342 -15.877  1.00  0.00    -0.027 C 
HETATM   11  C   UNL     1      33.574   7.038 -14.747  1.00  0.00    -0.027 C 
BRANCH  11  12
HETATM   12  C   UNL     1      32.100   7.247 -14.514  1.00  0.00     0.053 C 
BRANCH  12  13
HETATM   13  C   UNL     1      31.372   5.927 -14.458  1.00  0.00    -0.027 C 
HETATM   14  C   UNL     1      30.732   5.319 -15.475  1.00  0.00    -0.027 C 
BRANCH  14  15
HETATM   15  C   UNL     1      30.570   5.860 -16.870  1.00  0.00     0.053 C 
BRANCH  15  16
HETATM   16  C   UNL     1      31.623   5.230 -17.755  1.00  0.00    -0.027 C 
HETATM   17  C   UNL     1      31.793   5.389 -19.083  1.00  0.00    -0.027 C 
BRANCH  17  18
HETATM   18  C   UNL     1      30.979   6.257 -20.007  1.00  0.00     0.053 C 
BRANCH  18  19
HETATM   19  C   UNL     1      30.368   5.430 -21.114  1.00  0.00    -0.027 C 
HETATM   20  C   UNL     1      30.877   5.198 -22.341  1.00  0.00    -0.027 C 
BRANCH  20  21
HETATM   21  C   UNL     1      32.207   5.666 -22.879  1.00  0.00     0.053 C 
BRANCH  21  22
HETATM   22  C   UNL     1      32.115   7.090 -23.375  1.00  0.00    -0.027 C 
HETATM   23  C   UNL     1      32.967   8.101 -23.113  1.00  0.00    -0.031 C 
BRANCH  23  24
HETATM   24  C   UNL     1      34.197   8.036 -22.246  1.00  0.00     0.022 C 
HETATM   25  C   UNL     1      33.894   8.329 -20.782  1.00  0.00     0.009 C 
ENDBRANCH  23  24
ENDBRANCH  21  22
ENDBRANCH  20  21
ENDBRANCH  18  19
ENDBRANCH  17  18
ENDBRANCH  15  16
ENDBRANCH  14  15
ENDBRANCH  12  13
ENDBRANCH  11  12
ENDBRANCH   9  10
ENDBRANCH   8   9
ENDBRANCH   6   7
ENDBRANCH   5   6
ENDBRANCH   3   5
ENDBRANCH   1   3
TORSDOF 15
ENDMDL
MODEL 2
REMARK VINA RESULT:      -4.6      2.049      4.845
REMARK  15 active torsions:
REMARK  status: ('A' for Active; 'I' for Inactive)
REMARK    1  A    between atoms: O_1  and  C_23 
REMARK    2  A    between atoms: C_3  and  C_7 
REMARK    3  A    between atoms: C_3  and  C_8 
REMARK    4  A    between atoms: C_4  and  C_10 
REMARK    5  A    between atoms: C_4  and  C_11 
REMARK    6  A    between atoms: C_5  and  C_12 
REMARK    7  A    between atoms: C_5  and  C_13 
REMARK    8  A    between atoms: C_6  and  C_15 
REMARK    9  A    between atoms: C_6  and  C_16 
REMARK   10  A    between atoms: C_7  and  C_23 
REMARK   11  A    between atoms: C_9  and  C_17 
REMARK   12  A    between atoms: C_9  and  C_18 
REMARK   13  A    between atoms: C_14  and  C_19 
REMARK   14  A    between atoms: C_14  and  C_20 
REMARK   15  A    between atoms: C_21  and  C_22 
ROOT
HETATM    1  O   UNL     1      28.774  11.927 -20.736  1.00  0.00    -0.776 OA
HETATM    2  H   UNL     1      27.950  12.432 -20.718  1.00  0.00     0.167 HD
ENDROOT
BRANCH   1   3
HETATM    3  C   UNL     1      28.931  10.808 -19.996  1.00  0.00     0.139 C 
HETATM    4  O   UNL     1      28.066  10.475 -19.198  1.00  0.00    -0.650 OA
BRANCH   3   5
HETATM    5  C   UNL     1      30.168   9.973 -20.159  1.00  0.00     0.113 C 
BRANCH   5   6
HETATM    6  C   UNL     1      30.299   8.959 -19.017  1.00  0.00     0.037 C 
BRANCH   6   7
HETATM    7  C   UNL     1      31.626   9.117 -18.314  1.00  0.00    -0.030 C 
HETATM    8  C   UNL     1      32.374   8.138 -17.763  1.00  0.00    -0.027 C 
BRANCH   8   9
HETATM    9  C   UNL     1      32.066   6.656 -17.718  1.00  0.00     0.053 C 
BRANCH   9  10
HETATM   10  C   UNL     1      32.854   5.912 -18.765  1.00  0.00    -0.027 C 
HETATM   11  C   UNL     1      32.366   5.433 -19.924  1.00  0.00    -0.027 C 
BRANCH  11  12
HETATM   12  C   UNL     1      30.952   5.605 -20.413  1.00  0.00     0.053 C 
BRANCH  12  13
HETATM   13  C   UNL     1      30.793   5.048 -21.806  1.00  0.00    -0.027 C 
HETATM   14  C   UNL     1      30.967   5.715 -22.962  1.00  0.00    -0.027 C 
BRANCH  14  15
HETATM   15  C   UNL     1      31.310   7.174 -23.102  1.00  0.00     0.053 C 
BRANCH  15  16
HETATM   16  C   UNL     1      32.794   7.295 -23.368  1.00  0.00    -0.027 C 
HETATM   17  C   UNL     1      33.724   7.914 -22.613  1.00  0.00    -0.027 C 
BRANCH  17  18
HETATM   18  C   UNL     1      33.507   8.621 -21.301  1.00  0.00     0.053 C 
BRANCH  18  19
HETATM   19  C   UNL     1      34.797   8.704 -20.520  1.00  0.00    -0.027 C 
HETATM   20  C   UNL     1      35.275   9.763 -19.834  1.00  0.00    -0.027 C 
BRANCH  20  21
HETATM   21  C   UNL     1      34.603  11.099 -19.640  1.00  0.00     0.053 C 
BRANCH  21  22
HETATM   22  C   UNL     1      34.863  12.008 -20.818  1.00  0.00    -0.027 C 
HETATM   23  C   UNL     1      33.974  12.416 -21.745  1.00  0.00    -0.031 C 
BRANCH  23  24
HETATM   24  C   UNL     1      32.518  12.037 -21.819  1.00  0.00     0.022 C 
HETATM   25  C   UNL     1      32.019  11.917 -23.254  1.00  0.00     0.009 C 
ENDBRANCH  23  24
ENDBRANCH  21  22
ENDBRANCH  20  21
ENDBRANCH  18  19
ENDBRANCH  17  18
ENDBRANCH  15  16
ENDBRANCH  14  15
ENDBRANCH  12  13
ENDBRANCH  11  12
ENDBRANCH   9  10
ENDBRANCH   8   9
ENDBRANCH   6   7
ENDBRANCH   5   6
ENDBRANCH   3   5
ENDBRANCH   1   3
TORSDOF 15
ENDMDL
MODEL 3
REMARK VINA RESULT:      -4.6      4.053      7.988
REMARK  15 active torsions:
REMARK  status: ('A' for Active; 'I' for Inactive)
REMARK    1  A    between atoms: O_1  and  C_23 
REMARK    2  A    between atoms: C_3  and  C_7 
REMARK    3  A    between atoms: C_3  and  C_8 
REMARK    4  A    between atoms: C_4  and  C_10 
REMARK    5  A    between atoms: C_4  and  C_11 
REMARK    6  A    between atoms: C_5  and  C_12 
REMARK    7  A    between atoms: C_5  and  C_13 
REMARK    8  A    between atoms: C_6  and  C_15 
REMARK    9  A    between atoms: C_6  and  C_16 
REMARK   10  A    between atoms: C_7  and  C_23 
REMARK   11  A    between atoms: C_9  and  C_17 
REMARK   12  A    between atoms: C_9  and  C_18 
REMARK   13  A    between atoms: C_14  and  C_19 
REMARK   14  A    between atoms: C_14  and  C_20 
REMARK   15  A    between atoms: C_21  and  C_22 
ROOT
HETATM    1  O   UNL     1      32.855   4.081 -11.320  1.00  0.00    -0.776 OA
HETATM    2  H   UNL     1      33.644   3.591 -11.591  1.00  0.00     0.167 HD
ENDROOT
BRANCH   1   3
HETATM    3  C   UNL     1      32.564   5.292 -11.843  1.00  0.00     0.139 C 
HETATM    4  O   UNL     1      33.431   6.152 -11.915  1.00  0.00    -0.650 OA
BRANCH   3   5
HETATM    5  C   UNL     1      31.175   5.576 -12.338  1.00  0.00     0.113 C 
BRANCH   5   6
HETATM    6  C   UNL     1      31.070   5.326 -13.847  1.00  0.00     0.037 C 
BRANCH   6   7
HETATM    7  C   UNL     1      31.061   6.632 -14.604  1.00  0.00    -0.030 C 
HETATM    8  C   UNL     1      30.811   6.807 -15.919  1.00  0.00    -0.027 C 
BRANCH   8   9
HETATM    9  C   UNL     1      30.482   5.743 -16.944  1.00  0.00     0.053 C 
BRANCH   9  10
HETATM   10  C   UNL     1      31.729   5.021 -17.387  1.00  0.00    -0.027 C 
HETATM   11  C   UNL     1      32.517   5.374 -18.419  1.00  0.00    -0.027 C 
BRANCH  11  12
HETATM   12  C   UNL     1      32.328   6.592 -19.286  1.00  0.00     0.053 C 
BRANCH  12  13
HETATM   13  C   UNL     1      33.617   7.363 -19.419  1.00  0.00    -0.027 C 
HETATM   14  C   UNL     1      34.084   8.300 -18.572  1.00  0.00    -0.027 C 
BRANCH  14  15
HETATM   15  C   UNL     1      33.385   8.807 -17.339  1.00  0.00     0.053 C 
BRANCH  15  16
HETATM   16  C   UNL     1      34.330   9.724 -16.594  1.00  0.00    -0.027 C 
HETATM   17  C   UNL     1      34.690   9.666 -15.296  1.00  0.00    -0.027 C 
BRANCH  17  18
HETATM   18  C   UNL     1      34.247   8.653 -14.274  1.00  0.00     0.053 C 
BRANCH  18  19
HETATM   19  C   UNL     1      34.342   9.226 -12.879  1.00  0.00    -0.027 C 
HETATM   20  C   UNL     1      33.325   9.579 -12.065  1.00  0.00    -0.027 C 
BRANCH  20  21
HETATM   21  C   UNL     1      31.849   9.431 -12.337  1.00  0.00     0.053 C 
BRANCH  21  22
HETATM   22  C   UNL     1      31.417  10.333 -13.469  1.00  0.00    -0.027 C 
HETATM   23  C   UNL     1      31.231  11.667 -13.422  1.00  0.00    -0.031 C 
BRANCH  23  24
HETATM   24  C   UNL     1      31.397  12.554 -12.216  1.00  0.00     0.022 C 
HETATM   25  C   UNL     1      30.138  12.616 -11.361  1.00  0.00     0.009 C 
ENDBRANCH  23  24
ENDBRANCH  21  22
ENDBRANCH  20  21
ENDBRANCH  18  19
ENDBRANCH  17  18
ENDBRANCH  15  16
ENDBRANCH  14  15
ENDBRANCH  12  13
ENDBRANCH  11  12
ENDBRANCH   9  10
ENDBRANCH   8   9
ENDBRANCH   6   7
ENDBRANCH   5   6
ENDBRANCH   3   5
ENDBRANCH   1   3
TORSDOF 15
ENDMDL
MODEL 4
REMARK VINA RESULT:      -4.5      2.771      6.864
REMARK  15 active torsions:
REMARK  status: ('A' for Active; 'I' for Inactive)
REMARK    1  A    between atoms: O_1  and  C_23 
REMARK    2  A    between atoms: C_3  and  C_7 
REMARK    3  A    between atoms: C_3  and  C_8 
REMARK    4  A    between atoms: C_4  and  C_10 
REMARK    5  A    between atoms: C_4  and  C_11 
REMARK    6  A    between atoms: C_5  and  C_12 
REMARK    7  A    between atoms: C_5  and  C_13 
REMARK    8  A    between atoms: C_6  and  C_15 
REMARK    9  A    between atoms: C_6  and  C_16 
REMARK   10  A    between atoms: C_7  and  C_23 
REMARK   11  A    between atoms: C_9  and  C_17 
REMARK   12  A    between atoms: C_9  and  C_18 
REMARK   13  A    between atoms: C_14  and  C_19 
REMARK   14  A    between atoms: C_14  and  C_20 
REMARK   15  A    between atoms: C_21  and  C_22 
ROOT
HETATM    1  O   UNL     1      33.062   4.991 -22.152  1.00  0.00    -0.776 OA
HETATM    2  H   UNL     1      32.412   4.772 -21.470  1.00  0.00     0.167 HD
ENDROOT
BRANCH   1   3
HETATM    3  C   UNL     1      32.701   5.613 -23.294  1.00  0.00     0.139 C 
HETATM    4  O   UNL     1      32.294   4.960 -24.245  1.00  0.00    -0.650 OA
BRANCH   3   5
HETATM    5  C   UNL     1      32.797   7.109 -23.392  1.00  0.00     0.113 C 
BRANCH   5   6
HETATM    6  C   UNL     1      31.850   7.785 -22.394  1.00  0.00     0.037 C 
BRANCH   6   7
HETATM    7  C   UNL     1      32.614   8.285 -21.191  1.00  0.00    -0.030 C 
HETATM    8  C   UNL     1      32.258   8.161 -19.894  1.00  0.00    -0.027 C 
BRANCH   8   9
HETATM    9  C   UNL     1      31.018   7.495 -19.339  1.00  0.00     0.053 C 
BRANCH   9  10
HETATM   10  C   UNL     1      31.200   6.000 -19.261  1.00  0.00    -0.027 C 
HETATM   11  C   UNL     1      30.967   5.235 -18.179  1.00  0.00    -0.027 C 
BRANCH  11  12
HETATM   12  C   UNL     1      30.427   5.727 -16.862  1.00  0.00     0.053 C 
BRANCH  12  13
HETATM   13  C   UNL     1      31.237   5.183 -15.711  1.00  0.00    -0.027 C 
HETATM   14  C   UNL     1      32.525   5.461 -15.435  1.00  0.00    -0.027 C 
BRANCH  14  15
HETATM   15  C   UNL     1      33.438   6.337 -16.250  1.00  0.00     0.053 C 
BRANCH  15  16
HETATM   16  C   UNL     1      33.909   7.482 -15.380  1.00  0.00    -0.027 C 
HETATM   17  C   UNL     1      33.482   8.761 -15.392  1.00  0.00    -0.027 C 
BRANCH  17  18
HETATM   18  C   UNL     1      32.412   9.355 -16.269  1.00  0.00     0.053 C 
BRANCH  18  19
HETATM   19  C   UNL     1      31.043   8.887 -15.831  1.00  0.00    -0.027 C 
HETATM   20  C   UNL     1      30.593   8.734 -14.569  1.00  0.00    -0.027 C 
BRANCH  20  21
HETATM   21  C   UNL     1      31.336   9.047 -13.294  1.00  0.00     0.053 C 
BRANCH  21  22
HETATM   22  C   UNL     1      31.058   8.001 -12.239  1.00  0.00    -0.027 C 
HETATM   23  C   UNL     1      31.944   7.155 -11.677  1.00  0.00    -0.031 C 
BRANCH  23  24
HETATM   24  C   UNL     1      33.413   7.053 -11.993  1.00  0.00     0.022 C 
HETATM   25  C   UNL     1      34.289   7.252 -10.763  1.00  0.00     0.009 C 
ENDBRANCH  23  24
ENDBRANCH  21  22
ENDBRANCH  20  21
ENDBRANCH  18  19
ENDBRANCH  17  18
ENDBRANCH  15  16
ENDBRANCH  14  15
ENDBRANCH  12  13
ENDBRANCH  11  12
ENDBRANCH   9  10
ENDBRANCH   8   9
ENDBRANCH   6   7
ENDBRANCH   5   6
ENDBRANCH   3   5
ENDBRANCH   1   3
TORSDOF 15
ENDMDL
MODEL 5
REMARK VINA RESULT:      -4.4      2.540      5.088
REMARK  15 active torsions:
REMARK  status: ('A' for Active; 'I' for Inactive)
REMARK    1  A    between atoms: O_1  and  C_23 
REMARK    2  A    between atoms: C_3  and  C_7 
REMARK    3  A    between atoms: C_3  and  C_8 
REMARK    4  A    between atoms: C_4  and  C_10 
REMARK    5  A    between atoms: C_4  and  C_11 
REMARK    6  A    between atoms: C_5  and  C_12 
REMARK    7  A    between atoms: C_5  and  C_13 
REMARK    8  A    between atoms: C_6  and  C_15 
REMARK    9  A    between atoms: C_6  and  C_16 
REMARK   10  A    between atoms: C_7  and  C_23 
REMARK   11  A    between atoms: C_9  and  C_17 
REMARK   12  A    between atoms: C_9  and  C_18 
REMARK   13  A    between atoms: C_14  and  C_19 
REMARK   14  A    between atoms: C_14  and  C_20 
REMARK   15  A    between atoms: C_21  and  C_22 
ROOT
HETATM    1  O   UNL     1      30.503  12.019 -12.673  1.00  0.00    -0.776 OA
HETATM    2  H   UNL     1      29.969  12.786 -12.921  1.00  0.00     0.167 HD
ENDROOT
BRANCH   1   3
HETATM    3  C   UNL     1      30.029  10.761 -12.800  1.00  0.00     0.139 C 
HETATM    4  O   UNL     1      28.884  10.574 -13.186  1.00  0.00    -0.650 OA
BRANCH   3   5
HETATM    5  C   UNL     1      30.915   9.594 -12.470  1.00  0.00     0.113 C 
BRANCH   5   6
HETATM    6  C   UNL     1      30.710   8.451 -13.471  1.00  0.00     0.037 C 
BRANCH   6   7
HETATM    7  C   UNL     1      31.736   8.521 -14.577  1.00  0.00    -0.030 C 
HETATM    8  C   UNL     1      32.360   7.483 -15.173  1.00  0.00    -0.027 C 
BRANCH   8   9
HETATM    9  C   UNL     1      32.183   6.009 -14.878  1.00  0.00     0.053 C 
BRANCH   9  10
HETATM   10  C   UNL     1      30.852   5.516 -15.386  1.00  0.00    -0.027 C 
HETATM   11  C   UNL     1      30.571   5.184 -16.659  1.00  0.00    -0.027 C 
BRANCH  11  12
HETATM   12  C   UNL     1      31.554   5.189 -17.801  1.00  0.00     0.053 C 
BRANCH  12  13
HETATM   13  C   UNL     1      30.841   5.307 -19.125  1.00  0.00    -0.027 C 
HETATM   14  C   UNL     1      31.410   5.333 -20.344  1.00  0.00    -0.027 C 
BRANCH  14  15
HETATM   15  C   UNL     1      32.887   5.299 -20.634  1.00  0.00     0.053 C 
BRANCH  15  16
HETATM   16  C   UNL     1      33.189   6.319 -21.710  1.00  0.00    -0.027 C 
HETATM   17  C   UNL     1      34.006   7.389 -21.631  1.00  0.00    -0.027 C 
BRANCH  17  18
HETATM   18  C   UNL     1      34.834   7.816 -20.448  1.00  0.00     0.053 C 
BRANCH  18  19
HETATM   19  C   UNL     1      34.772   9.314 -20.266  1.00  0.00    -0.027 C 
HETATM   20  C   UNL     1      34.100   9.999 -19.318  1.00  0.00    -0.027 C 
BRANCH  20  21
HETATM   21  C   UNL     1      33.294   9.424 -18.180  1.00  0.00     0.053 C 
BRANCH  21  22
HETATM   22  C   UNL     1      32.065   8.713 -18.696  1.00  0.00    -0.027 C 
HETATM   23  C   UNL     1      30.779   8.994 -18.409  1.00  0.00    -0.031 C 
BRANCH  23  24
HETATM   24  C   UNL     1      30.282  10.077 -17.488  1.00  0.00     0.022 C 
HETATM   25  C   UNL     1      29.674  11.252 -18.244  1.00  0.00     0.009 C 
ENDBRANCH  23  24
ENDBRANCH  21  22
ENDBRANCH  20  21
ENDBRANCH  18  19
ENDBRANCH  17  18
ENDBRANCH  15  16
ENDBRANCH  14  15
ENDBRANCH  12  13
ENDBRANCH  11  12
ENDBRANCH   9  10
ENDBRANCH   8   9
ENDBRANCH   6   7
ENDBRANCH   5   6
ENDBRANCH   3   5
ENDBRANCH   1   3
TORSDOF 15
ENDMDL
MODEL 6
REMARK VINA RESULT:      -4.4     48.069     50.903
REMARK  15 active torsions:
REMARK  status: ('A' for Active; 'I' for Inactive)
REMARK    1  A    between atoms: O_1  and  C_23 
REMARK    2  A    between atoms: C_3  and  C_7 
REMARK    3  A    between atoms: C_3  and  C_8 
REMARK    4  A    between atoms: C_4  and  C_10 
REMARK    5  A    between atoms: C_4  and  C_11 
REMARK    6  A    between atoms: C_5  and  C_12 
REMARK    7  A    between atoms: C_5  and  C_13 
REMARK    8  A    between atoms: C_6  and  C_15 
REMARK    9  A    between atoms: C_6  and  C_16 
REMARK   10  A    between atoms: C_7  and  C_23 
REMARK   11  A    between atoms: C_9  and  C_17 
REMARK   12  A    between atoms: C_9  and  C_18 
REMARK   13  A    between atoms: C_14  and  C_19 
REMARK   14  A    between atoms: C_14  and  C_20 
REMARK   15  A    between atoms: C_21  and  C_22 
ROOT
HETATM    1  O   UNL     1     -21.326  11.074 -11.075  1.00  0.00    -0.776 OA
HETATM    2  H   UNL     1     -22.066  10.639 -11.519  1.00  0.00     0.167 HD
ENDROOT
BRANCH   1   3
HETATM    3  C   UNL     1     -21.158  12.413 -11.133  1.00  0.00     0.139 C 
HETATM    4  O   UNL     1     -21.944  13.154 -10.561  1.00  0.00    -0.650 OA
BRANCH   3   5
HETATM    5  C   UNL     1     -20.001  12.987 -11.901  1.00  0.00     0.113 C 
BRANCH   5   6
HETATM    6  C   UNL     1     -19.432  11.957 -12.884  1.00  0.00     0.037 C 
BRANCH   6   7
HETATM    7  C   UNL     1     -18.619  12.639 -13.958  1.00  0.00    -0.030 C 
HETATM    8  C   UNL     1     -17.428  12.240 -14.451  1.00  0.00    -0.027 C 
BRANCH   8   9
HETATM    9  C   UNL     1     -16.626  11.020 -14.050  1.00  0.00     0.053 C 
BRANCH   9  10
HETATM   10  C   UNL     1     -15.254  11.050 -14.673  1.00  0.00    -0.027 C 
HETATM   11  C   UNL     1     -14.118  10.619 -14.094  1.00  0.00    -0.027 C 
BRANCH  11  12
HETATM   12  C   UNL     1     -14.020   9.973 -12.737  1.00  0.00     0.053 C 
BRANCH  12  13
HETATM   13  C   UNL     1     -13.408  10.918 -11.734  1.00  0.00    -0.027 C 
HETATM   14  C   UNL     1     -14.056  11.585 -10.760  1.00  0.00    -0.027 C 
BRANCH  14  15
HETATM   15  C   UNL     1     -15.539  11.561 -10.504  1.00  0.00     0.053 C 
BRANCH  15  16
HETATM   16  C   UNL     1     -15.779  10.997  -9.121  1.00  0.00    -0.027 C 
HETATM   17  C   UNL     1     -16.855  11.176  -8.328  1.00  0.00    -0.027 C 
BRANCH  17  18
HETATM   18  C   UNL     1     -18.093  11.973  -8.642  1.00  0.00     0.053 C 
BRANCH  18  19
HETATM   19  C   UNL     1     -19.334  11.215  -8.232  1.00  0.00    -0.027 C 
HETATM   20  C   UNL     1     -20.378  11.676  -7.513  1.00  0.00    -0.027 C 
BRANCH  20  21
HETATM   21  C   UNL     1     -20.577  13.079  -6.996  1.00  0.00     0.053 C 
BRANCH  21  22
HETATM   22  C   UNL     1     -20.558  13.103  -5.485  1.00  0.00    -0.027 C 
HETATM   23  C   UNL     1     -19.481  13.001  -4.682  1.00  0.00    -0.031 C 
BRANCH  23  24
HETATM   24  C   UNL     1     -18.051  12.821  -5.117  1.00  0.00     0.022 C 
HETATM   25  C   UNL     1     -17.441  11.526  -4.596  1.00  0.00     0.009 C 
ENDBRANCH  23  24
ENDBRANCH  21  22
ENDBRANCH  20  21
ENDBRANCH  18  19
ENDBRANCH  17  18
ENDBRANCH  15  16
ENDBRANCH  14  15
ENDBRANCH  12  13
ENDBRANCH  11  12
ENDBRANCH   9  10
ENDBRANCH   8   9
ENDBRANCH   6   7
ENDBRANCH   5   6
ENDBRANCH   3   5
ENDBRANCH   1   3
TORSDOF 15
ENDMDL
MODEL 7
REMARK VINA RESULT:      -4.4     44.807     46.949
REMARK  15 active torsions:
REMARK  status: ('A' for Active; 'I' for Inactive)
REMARK    1  A    between atoms: O_1  and  C_23 
REMARK    2  A    between atoms: C_3  and  C_7 
REMARK    3  A    between atoms: C_3  and  C_8 
REMARK    4  A    between atoms: C_4  and  C_10 
REMARK    5  A    between atoms: C_4  and  C_11 
REMARK    6  A    between atoms: C_5  and  C_12 
REMARK    7  A    between atoms: C_5  and  C_13 
REMARK    8  A    between atoms: C_6  and  C_15 
REMARK    9  A    between atoms: C_6  and  C_16 
REMARK   10  A    between atoms: C_7  and  C_23 
REMARK   11  A    between atoms: C_9  and  C_17 
REMARK   12  A    between atoms: C_9  and  C_18 
REMARK   13  A    between atoms: C_14  and  C_19 
REMARK   14  A    between atoms: C_14  and  C_20 
REMARK   15  A    between atoms: C_21  and  C_22 
ROOT
HETATM    1  O   UNL     1     -12.998   7.437 -20.382  1.00  0.00    -0.776 OA
HETATM    2  H   UNL     1     -12.241   6.843 -20.283  1.00  0.00     0.167 HD
ENDROOT
BRANCH   1   3
HETATM    3  C   UNL     1     -13.078   8.598 -19.696  1.00  0.00     0.139 C 
HETATM    4  O   UNL     1     -12.999   8.594 -18.476  1.00  0.00    -0.650 OA
BRANCH   3   5
HETATM    5  C   UNL     1     -13.259   9.891 -20.438  1.00  0.00     0.113 C 
BRANCH   5   6
HETATM    6  C   UNL     1     -13.571  11.038 -19.469  1.00  0.00     0.037 C 
BRANCH   6   7
HETATM    7  C   UNL     1     -14.834  11.754 -19.882  1.00  0.00    -0.030 C 
HETATM    8  C   UNL     1     -16.068  11.592 -19.357  1.00  0.00    -0.027 C 
BRANCH   8   9
HETATM    9  C   UNL     1     -16.478  10.660 -18.237  1.00  0.00     0.053 C 
BRANCH   9  10
HETATM   10  C   UNL     1     -17.098  11.429 -17.098  1.00  0.00    -0.027 C 
HETATM   11  C   UNL     1     -16.706  11.381 -15.813  1.00  0.00    -0.027 C 
BRANCH  11  12
HETATM   12  C   UNL     1     -15.536  10.591 -15.285  1.00  0.00     0.053 C 
BRANCH  12  13
HETATM   13  C   UNL     1     -14.255  11.377 -15.414  1.00  0.00    -0.027 C 
HETATM   14  C   UNL     1     -13.132  11.205 -14.692  1.00  0.00    -0.027 C 
BRANCH  14  15
HETATM   15  C   UNL     1     -12.941  10.222 -13.568  1.00  0.00     0.053 C 
BRANCH  15  16
HETATM   16  C   UNL     1     -12.645  10.992 -12.300  1.00  0.00    -0.027 C 
HETATM   17  C   UNL     1     -13.514  11.387 -11.348  1.00  0.00    -0.027 C 
BRANCH  17  18
HETATM   18  C   UNL     1     -14.998  11.136 -11.311  1.00  0.00     0.053 C 
BRANCH  18  19
HETATM   19  C   UNL     1     -15.622  11.801 -10.106  1.00  0.00    -0.027 C 
HETATM   20  C   UNL     1     -15.891  11.243  -8.908  1.00  0.00    -0.027 C 
BRANCH  20  21
HETATM   21  C   UNL     1     -15.580   9.832  -8.470  1.00  0.00     0.053 C 
BRANCH  21  22
HETATM   22  C   UNL     1     -14.125   9.696  -8.088  1.00  0.00    -0.027 C 
HETATM   23  C   UNL     1     -13.265   8.736  -8.481  1.00  0.00    -0.031 C 
BRANCH  23  24
HETATM   24  C   UNL     1     -13.575   7.567  -9.380  1.00  0.00     0.022 C 
HETATM   25  C   UNL     1     -12.933   7.702 -10.754  1.00  0.00     0.009 C 
ENDBRANCH  23  24
ENDBRANCH  21  22
ENDBRANCH  20  21
ENDBRANCH  18  19
ENDBRANCH  17  18
ENDBRANCH  15  16
ENDBRANCH  14  15
ENDBRANCH  12  13
ENDBRANCH  11  12
ENDBRANCH   9  10
ENDBRANCH   8   9
ENDBRANCH   6   7
ENDBRANCH   5   6
ENDBRANCH   3   5
ENDBRANCH   1   3
TORSDOF 15
ENDMDL
MODEL 8
REMARK VINA RESULT:      -4.3      2.278      4.787
REMARK  15 active torsions:
REMARK  status: ('A' for Active; 'I' for Inactive)
REMARK    1  A    between atoms: O_1  and  C_23 
REMARK    2  A    between atoms: C_3  and  C_7 
REMARK    3  A    between atoms: C_3  and  C_8 
REMARK    4  A    between atoms: C_4  and  C_10 
REMARK    5  A    between atoms: C_4  and  C_11 
REMARK    6  A    between atoms: C_5  and  C_12 
REMARK    7  A    between atoms: C_5  and  C_13 
REMARK    8  A    between atoms: C_6  and  C_15 
REMARK    9  A    between atoms: C_6  and  C_16 
REMARK   10  A    between atoms: C_7  and  C_23 
REMARK   11  A    between atoms: C_9  and  C_17 
REMARK   12  A    between atoms: C_9  and  C_18 
REMARK   13  A    between atoms: C_14  and  C_19 
REMARK   14  A    between atoms: C_14  and  C_20 
REMARK   15  A    between atoms: C_21  and  C_22 
ROOT
HETATM    1  O   UNL     1      30.934   6.318 -22.877  1.00  0.00    -0.776 OA
HETATM    2  H   UNL     1      30.332   5.696 -23.308  1.00  0.00     0.167 HD
ENDROOT
BRANCH   1   3
HETATM    3  C   UNL     1      32.024   6.799 -23.512  1.00  0.00     0.139 C 
HETATM    4  O   UNL     1      32.554   6.145 -24.399  1.00  0.00    -0.650 OA
BRANCH   3   5
HETATM    5  C   UNL     1      32.581   8.140 -23.127  1.00  0.00     0.113 C 
BRANCH   5   6
HETATM    6  C   UNL     1      33.997   8.002 -22.557  1.00  0.00     0.037 C 
BRANCH   6   7
HETATM    7  C   UNL     1      33.971   7.261 -21.242  1.00  0.00    -0.030 C 
HETATM    8  C   UNL     1      34.370   7.728 -20.039  1.00  0.00    -0.027 C 
BRANCH   8   9
HETATM    9  C   UNL     1      34.935   9.096 -19.722  1.00  0.00     0.053 C 
BRANCH   9  10
HETATM   10  C   UNL     1      33.832  10.067 -19.385  1.00  0.00    -0.027 C 
HETATM   11  C   UNL     1      33.384  10.348 -18.148  1.00  0.00    -0.027 C 
BRANCH  11  12
HETATM   12  C   UNL     1      33.943   9.785 -16.867  1.00  0.00     0.053 C 
BRANCH  12  13
HETATM   13  C   UNL     1      32.886   9.021 -16.108  1.00  0.00    -0.027 C 
HETATM   14  C   UNL     1      32.907   7.711 -15.802  1.00  0.00    -0.027 C 
BRANCH  14  15
HETATM   15  C   UNL     1      33.973   6.724 -16.199  1.00  0.00     0.053 C 
BRANCH  15  16
HETATM   16  C   UNL     1      33.461   5.327 -15.924  1.00  0.00    -0.027 C 
HETATM   17  C   UNL     1      32.233   4.830 -16.174  1.00  0.00    -0.027 C 
BRANCH  17  18
HETATM   18  C   UNL     1      31.073   5.550 -16.810  1.00  0.00     0.053 C 
BRANCH  18  19
HETATM   19  C   UNL     1      31.155   5.468 -18.316  1.00  0.00    -0.027 C 
HETATM   20  C   UNL     1      30.987   6.470 -19.203  1.00  0.00    -0.027 C 
BRANCH  20  21
HETATM   21  C   UNL     1      30.729   7.925 -18.895  1.00  0.00     0.053 C 
BRANCH  21  22
HETATM   22  C   UNL     1      30.633   8.735 -20.167  1.00  0.00    -0.027 C 
HETATM   23  C   UNL     1      29.807   9.770 -20.413  1.00  0.00    -0.031 C 
BRANCH  23  24
HETATM   24  C   UNL     1      28.776  10.339 -19.473  1.00  0.00     0.022 C 
HETATM   25  C   UNL     1      28.755  11.862 -19.483  1.00  0.00     0.009 C 
ENDBRANCH  23  24
ENDBRANCH  21  22
ENDBRANCH  20  21
ENDBRANCH  18  19
ENDBRANCH  17  18
ENDBRANCH  15  16
ENDBRANCH  14  15
ENDBRANCH  12  13
ENDBRANCH  11  12
ENDBRANCH   9  10
ENDBRANCH   8   9
ENDBRANCH   6   7
ENDBRANCH   5   6
ENDBRANCH   3   5
ENDBRANCH   1   3
TORSDOF 15
ENDMDL
MODEL 9
REMARK VINA RESULT:      -4.3     45.767     48.622
REMARK  15 active torsions:
REMARK  status: ('A' for Active; 'I' for Inactive)
REMARK    1  A    between atoms: O_1  and  C_23 
REMARK    2  A    between atoms: C_3  and  C_7 
REMARK    3  A    between atoms: C_3  and  C_8 
REMARK    4  A    between atoms: C_4  and  C_10 
REMARK    5  A    between atoms: C_4  and  C_11 
REMARK    6  A    between atoms: C_5  and  C_12 
REMARK    7  A    between atoms: C_5  and  C_13 
REMARK    8  A    between atoms: C_6  and  C_15 
REMARK    9  A    between atoms: C_6  and  C_16 
REMARK   10  A    between atoms: C_7  and  C_23 
REMARK   11  A    between atoms: C_9  and  C_17 
REMARK   12  A    between atoms: C_9  and  C_18 
REMARK   13  A    between atoms: C_14  and  C_19 
REMARK   14  A    between atoms: C_14  and  C_20 
REMARK   15  A    between atoms: C_21  and  C_22 
ROOT
HETATM    1  O   UNL     1     -13.815   5.846 -13.455  1.00  0.00    -0.776 OA
HETATM    2  H   UNL     1     -13.521   4.925 -13.430  1.00  0.00     0.167 HD
ENDROOT
BRANCH   1   3
HETATM    3  C   UNL     1     -12.999   6.856 -13.084  1.00  0.00     0.139 C 
HETATM    4  O   UNL     1     -11.896   6.612 -12.617  1.00  0.00    -0.650 OA
BRANCH   3   5
HETATM    5  C   UNL     1     -13.450   8.279 -13.252  1.00  0.00     0.113 C 
BRANCH   5   6
HETATM    6  C   UNL     1     -13.667   8.614 -14.732  1.00  0.00     0.037 C 
BRANCH   6   7
HETATM    7  C   UNL     1     -13.028   9.938 -15.077  1.00  0.00    -0.030 C 
HETATM    8  C   UNL     1     -13.550  11.168 -14.879  1.00  0.00    -0.027 C 
BRANCH   8   9
HETATM    9  C   UNL     1     -14.891  11.512 -14.267  1.00  0.00     0.053 C 
BRANCH   9  10
HETATM   10  C   UNL     1     -15.962  11.584 -15.327  1.00  0.00    -0.027 C 
HETATM   11  C   UNL     1     -17.269  11.815 -15.109  1.00  0.00    -0.027 C 
BRANCH  11  12
HETATM   12  C   UNL     1     -17.894  12.103 -13.769  1.00  0.00     0.053 C 
BRANCH  12  13
HETATM   13  C   UNL     1     -19.178  11.330 -13.597  1.00  0.00    -0.027 C 
HETATM   14  C   UNL     1     -20.328  11.791 -13.070  1.00  0.00    -0.027 C 
BRANCH  14  15
HETATM   15  C   UNL     1     -20.553  13.164 -12.496  1.00  0.00     0.053 C 
BRANCH  15  16
HETATM   16  C   UNL     1     -20.773  13.032 -11.006  1.00  0.00    -0.027 C 
HETATM   17  C   UNL     1     -19.842  12.964 -10.033  1.00  0.00    -0.027 C 
BRANCH  17  18
HETATM   18  C   UNL     1     -18.346  13.022 -10.201  1.00  0.00     0.053 C 
BRANCH  18  19
HETATM   19  C   UNL     1     -17.667  12.039  -9.276  1.00  0.00    -0.027 C 
HETATM   20  C   UNL     1     -16.589  11.273  -9.540  1.00  0.00    -0.027 C 
BRANCH  20  21
HETATM   21  C   UNL     1     -15.772  11.259 -10.808  1.00  0.00     0.053 C 
BRANCH  21  22
HETATM   22  C   UNL     1     -14.344  11.671 -10.533  1.00  0.00    -0.027 C 
HETATM   23  C   UNL     1     -13.456  11.049  -9.733  1.00  0.00    -0.031 C 
BRANCH  23  24
HETATM   24  C   UNL     1     -13.699   9.805  -8.918  1.00  0.00     0.022 C 
HETATM   25  C   UNL     1     -13.228   8.542  -9.626  1.00  0.00     0.009 C 
ENDBRANCH  23  24
ENDBRANCH  21  22
ENDBRANCH  20  21
ENDBRANCH  18  19
ENDBRANCH  17  18
ENDBRANCH  15  16
ENDBRANCH  14  15
ENDBRANCH  12  13
ENDBRANCH  11  12
ENDBRANCH   9  10
ENDBRANCH   8   9
ENDBRANCH   6   7
ENDBRANCH   5   6
ENDBRANCH   3   5
ENDBRANCH   1   3
TORSDOF 15
ENDMDL
MODEL 10
REMARK VINA RESULT:      -4.3      9.259     12.509
REMARK  15 active torsions:
REMARK  status: ('A' for Active; 'I' for Inactive)
REMARK    1  A    between atoms: O_1  and  C_23 
REMARK    2  A    between atoms: C_3  and  C_7 
REMARK    3  A    between atoms: C_3  and  C_8 
REMARK    4  A    between atoms: C_4  and  C_10 
REMARK    5  A    between atoms: C_4  and  C_11 
REMARK    6  A    between atoms: C_5  and  C_12 
REMARK    7  A    between atoms: C_5  and  C_13 
REMARK    8  A    between atoms: C_6  and  C_15 
REMARK    9  A    between atoms: C_6  and  C_16 
REMARK   10  A    between atoms: C_7  and  C_23 
REMARK   11  A    between atoms: C_9  and  C_17 
REMARK   12  A    between atoms: C_9  and  C_18 
REMARK   13  A    between atoms: C_14  and  C_19 
REMARK   14  A    between atoms: C_14  and  C_20 
REMARK   15  A    between atoms: C_21  and  C_22 
ROOT
HETATM    1  O   UNL     1      30.260   8.791  -3.657  1.00  0.00    -0.776 OA
HETATM    2  H   UNL     1      29.556   9.202  -3.136  1.00  0.00     0.167 HD
ENDROOT
BRANCH   1   3
HETATM    3  C   UNL     1      30.330   8.952  -4.996  1.00  0.00     0.139 C 
HETATM    4  O   UNL     1      29.573   8.330  -5.727  1.00  0.00    -0.650 OA
BRANCH   3   5
HETATM    5  C   UNL     1      31.337   9.899  -5.582  1.00  0.00     0.113 C 
BRANCH   5   6
HETATM    6  C   UNL     1      31.234  11.282  -4.927  1.00  0.00     0.037 C 
BRANCH   6   7
HETATM    7  C   UNL     1      29.836  11.835  -5.068  1.00  0.00    -0.030 C 
HETATM    8  C   UNL     1      29.233  12.235  -6.208  1.00  0.00    -0.027 C 
BRANCH   8   9
HETATM    9  C   UNL     1      29.808  12.226  -7.608  1.00  0.00     0.053 C 
BRANCH   9  10
HETATM   10  C   UNL     1      28.729  12.468  -8.633  1.00  0.00    -0.027 C 
HETATM   11  C   UNL     1      28.687  11.938  -9.869  1.00  0.00    -0.027 C 
BRANCH  11  12
HETATM   12  C   UNL     1      29.683  10.959 -10.435  1.00  0.00     0.053 C 
BRANCH  12  13
HETATM   13  C   UNL     1      29.430   9.569  -9.905  1.00  0.00    -0.027 C 
HETATM   14  C   UNL     1      30.334   8.751  -9.335  1.00  0.00    -0.027 C 
BRANCH  14  15
HETATM   15  C   UNL     1      31.801   9.039  -9.153  1.00  0.00     0.053 C 
BRANCH  15  16
HETATM   16  C   UNL     1      32.518   8.717 -10.445  1.00  0.00    -0.027 C 
HETATM   17  C   UNL     1      33.197   7.595 -10.759  1.00  0.00    -0.027 C 
BRANCH  17  18
HETATM   18  C   UNL     1      33.388   6.376  -9.895  1.00  0.00     0.053 C 
BRANCH  18  19
HETATM   19  C   UNL     1      32.138   5.528  -9.887  1.00  0.00    -0.027 C 
HETATM   20  C   UNL     1      31.353   5.233  -8.830  1.00  0.00    -0.027 C 
BRANCH  20  21
HETATM   21  C   UNL     1      31.510   5.729  -7.414  1.00  0.00     0.053 C 
BRANCH  21  22
HETATM   22  C   UNL     1      32.631   5.000  -6.710  1.00  0.00    -0.027 C 
HETATM   23  C   UNL     1      33.395   5.461  -5.701  1.00  0.00    -0.031 C 
BRANCH  23  24
HETATM   24  C   UNL     1      33.311   6.822  -5.061  1.00  0.00     0.022 C 
HETATM   25  C   UNL     1      33.178   6.746  -3.545  1.00  0.00     0.009 C 
ENDBRANCH  23  24
ENDBRANCH  21  22
ENDBRANCH  20  21
ENDBRANCH  18  19
ENDBRANCH  17  18
ENDBRANCH  15  16
ENDBRANCH  14  15
ENDBRANCH  12  13
ENDBRANCH  11  12
ENDBRANCH   9  10
ENDBRANCH   8   9
ENDBRANCH   6   7
ENDBRANCH   5   6
ENDBRANCH   3   5
ENDBRANCH   1   3
TORSDOF 15
ENDMDL
MODEL 11
REMARK VINA RESULT:      -4.3     44.962     47.604
REMARK  15 active torsions:
REMARK  status: ('A' for Active; 'I' for Inactive)
REMARK    1  A    between atoms: O_1  and  C_23 
REMARK    2  A    between atoms: C_3  and  C_7 
REMARK    3  A    between atoms: C_3  and  C_8 
REMARK    4  A    between atoms: C_4  and  C_10 
REMARK    5  A    between atoms: C_4  and  C_11 
REMARK    6  A    between atoms: C_5  and  C_12 
REMARK    7  A    between atoms: C_5  and  C_13 
REMARK    8  A    between atoms: C_6  and  C_15 
REMARK    9  A    between atoms: C_6  and  C_16 
REMARK   10  A    between atoms: C_7  and  C_23 
REMARK   11  A    between atoms: C_9  and  C_17 
REMARK   12  A    between atoms: C_9  and  C_18 
REMARK   13  A    between atoms: C_14  and  C_19 
REMARK   14  A    between atoms: C_14  and  C_20 
REMARK   15  A    between atoms: C_21  and  C_22 
ROOT
HETATM    1  O   UNL     1     -16.133   8.662  -8.050  1.00  0.00    -0.776 OA
HETATM    2  H   UNL     1     -16.753   8.358  -7.373  1.00  0.00     0.167 HD
ENDROOT
BRANCH   1   3
HETATM    3  C   UNL     1     -14.894   9.092  -7.729  1.00  0.00     0.139 C 
HETATM    4  O   UNL     1     -14.629   9.386  -6.572  1.00  0.00    -0.650 OA
BRANCH   3   5
HETATM    5  C   UNL     1     -13.844   9.205  -8.797  1.00  0.00     0.113 C 
BRANCH   5   6
HETATM    6  C   UNL     1     -13.301  10.636  -8.882  1.00  0.00     0.037 C 
BRANCH   6   7
HETATM    7  C   UNL     1     -13.243  11.100 -10.318  1.00  0.00    -0.030 C 
HETATM    8  C   UNL     1     -14.280  11.493 -11.086  1.00  0.00    -0.027 C 
BRANCH   8   9
HETATM    9  C   UNL     1     -15.742  11.563 -10.697  1.00  0.00     0.053 C 
BRANCH   9  10
HETATM   10  C   UNL     1     -16.526  10.455 -11.353  1.00  0.00    -0.027 C 
HETATM   11  C   UNL     1     -17.228  10.560 -12.496  1.00  0.00    -0.027 C 
BRANCH  11  12
HETATM   12  C   UNL     1     -17.312  11.790 -13.360  1.00  0.00     0.053 C 
BRANCH  12  13
HETATM   13  C   UNL     1     -17.221  11.428 -14.822  1.00  0.00    -0.027 C 
HETATM   14  C   UNL     1     -16.106  11.409 -15.577  1.00  0.00    -0.027 C 
BRANCH  14  15
HETATM   15  C   UNL     1     -14.722  11.794 -15.125  1.00  0.00     0.053 C 
BRANCH  15  16
HETATM   16  C   UNL     1     -13.826  10.581 -15.234  1.00  0.00    -0.027 C 
HETATM   17  C   UNL     1     -12.887  10.325 -16.168  1.00  0.00    -0.027 C 
BRANCH  17  18
HETATM   18  C   UNL     1     -12.492  11.205 -17.324  1.00  0.00     0.053 C 
BRANCH  18  19
HETATM   19  C   UNL     1     -12.750  10.506 -18.639  1.00  0.00    -0.027 C 
HETATM   20  C   UNL     1     -13.940  10.291 -19.235  1.00  0.00    -0.027 C 
BRANCH  20  21
HETATM   21  C   UNL     1     -15.294  10.750 -18.753  1.00  0.00     0.053 C 
BRANCH  21  22
HETATM   22  C   UNL     1     -15.857  11.816 -19.665  1.00  0.00    -0.027 C 
HETATM   23  C   UNL     1     -17.120  12.284 -19.689  1.00  0.00    -0.031 C 
BRANCH  23  24
HETATM   24  C   UNL     1     -18.262  11.830 -18.818  1.00  0.00     0.022 C 
HETATM   25  C   UNL     1     -19.159  10.815 -19.515  1.00  0.00     0.009 C 
ENDBRANCH  23  24
ENDBRANCH  21  22
ENDBRANCH  20  21
ENDBRANCH  18  19
ENDBRANCH  17  18
ENDBRANCH  15  16
ENDBRANCH  14  15
ENDBRANCH  12  13
ENDBRANCH  11  12
ENDBRANCH   9  10
ENDBRANCH   8   9
ENDBRANCH   6   7
ENDBRANCH   5   6
ENDBRANCH   3   5
ENDBRANCH   1   3
TORSDOF 15
ENDMDL
MODEL 12
REMARK VINA RESULT:      -4.3      1.669      6.057
REMARK  15 active torsions:
REMARK  status: ('A' for Active; 'I' for Inactive)
REMARK    1  A    between atoms: O_1  and  C_23 
REMARK    2  A    between atoms: C_3  and  C_7 
REMARK    3  A    between atoms: C_3  and  C_8 
REMARK    4  A    between atoms: C_4  and  C_10 
REMARK    5  A    between atoms: C_4  and  C_11 
REMARK    6  A    between atoms: C_5  and  C_12 
REMARK    7  A    between atoms: C_5  and  C_13 
REMARK    8  A    between atoms: C_6  and  C_15 
REMARK    9  A    between atoms: C_6  and  C_16 
REMARK   10  A    between atoms: C_7  and  C_23 
REMARK   11  A    between atoms: C_9  and  C_17 
REMARK   12  A    between atoms: C_9  and  C_18 
REMARK   13  A    between atoms: C_14  and  C_19 
REMARK   14  A    between atoms: C_14  and  C_20 
REMARK   15  A    between atoms: C_21  and  C_22 
ROOT
HETATM    1  O   UNL     1      28.279  12.702 -18.944  1.00  0.00    -0.776 OA
HETATM    2  H   UNL     1      28.843  13.475 -19.085  1.00  0.00     0.167 HD
ENDROOT
BRANCH   1   3
HETATM    3  C   UNL     1      28.732  11.450 -19.168  1.00  0.00     0.139 C 
HETATM    4  O   UNL     1      27.942  10.521 -19.264  1.00  0.00    -0.650 OA
BRANCH   3   5
HETATM    5  C   UNL     1      30.208  11.203 -19.303  1.00  0.00     0.113 C 
BRANCH   5   6
HETATM    6  C   UNL     1      30.787  11.983 -20.488  1.00  0.00     0.037 C 
BRANCH   6   7
HETATM    7  C   UNL     1      30.252  11.444 -21.793  1.00  0.00    -0.030 C 
HETATM    8  C   UNL     1      30.521  10.243 -22.347  1.00  0.00    -0.027 C 
BRANCH   8   9
HETATM    9  C   UNL     1      31.418   9.155 -21.797  1.00  0.00     0.053 C 
BRANCH   9  10
HETATM   10  C   UNL     1      32.828   9.312 -22.308  1.00  0.00    -0.027 C 
HETATM   11  C   UNL     1      33.318   8.771 -23.438  1.00  0.00    -0.027 C 
BRANCH  11  12
HETATM   12  C   UNL     1      32.531   7.956 -24.430  1.00  0.00     0.053 C 
BRANCH  12  13
HETATM   13  C   UNL     1      33.105   6.567 -24.562  1.00  0.00    -0.027 C 
HETATM   14  C   UNL     1      32.833   5.508 -23.777  1.00  0.00    -0.027 C 
BRANCH  14  15
HETATM   15  C   UNL     1      31.933   5.507 -22.570  1.00  0.00     0.053 C 
BRANCH  15  16
HETATM   16  C   UNL     1      32.612   4.729 -21.465  1.00  0.00    -0.027 C 
HETATM   17  C   UNL     1      33.176   5.210 -20.338  1.00  0.00    -0.027 C 
BRANCH  17  18
HETATM   18  C   UNL     1      33.246   6.649 -19.899  1.00  0.00     0.053 C 
BRANCH  18  19
HETATM   19  C   UNL     1      32.092   6.984 -18.984  1.00  0.00    -0.027 C 
HETATM   20  C   UNL     1      32.088   7.854 -17.953  1.00  0.00    -0.027 C 
BRANCH  20  21
HETATM   21  C   UNL     1      33.224   8.739 -17.505  1.00  0.00     0.053 C 
BRANCH  21  22
HETATM   22  C   UNL     1      34.301   7.928 -16.822  1.00  0.00    -0.027 C 
HETATM   23  C   UNL     1      34.371   7.602 -15.517  1.00  0.00    -0.031 C 
BRANCH  23  24
HETATM   24  C   UNL     1      33.393   7.994 -14.440  1.00  0.00     0.022 C 
HETATM   25  C   UNL     1      32.274   6.975 -14.269  1.00  0.00     0.009 C 
ENDBRANCH  23  24
ENDBRANCH  21  22
ENDBRANCH  20  21
ENDBRANCH  18  19
ENDBRANCH  17  18
ENDBRANCH  15  16
ENDBRANCH  14  15
ENDBRANCH  12  13
ENDBRANCH  11  12
ENDBRANCH   9  10
ENDBRANCH   8   9
ENDBRANCH   6   7
ENDBRANCH   5   6
ENDBRANCH   3   5
ENDBRANCH   1   3
TORSDOF 15
ENDMDL
MODEL 13
REMARK VINA RESULT:      -4.2      7.361     11.614
REMARK  15 active torsions:
REMARK  status: ('A' for Active; 'I' for Inactive)
REMARK    1  A    between atoms: O_1  and  C_23 
REMARK    2  A    between atoms: C_3  and  C_7 
REMARK    3  A    between atoms: C_3  and  C_8 
REMARK    4  A    between atoms: C_4  and  C_10 
REMARK    5  A    between atoms: C_4  and  C_11 
REMARK    6  A    between atoms: C_5  and  C_12 
REMARK    7  A    between atoms: C_5  and  C_13 
REMARK    8  A    between atoms: C_6  and  C_15 
REMARK    9  A    between atoms: C_6  and  C_16 
REMARK   10  A    between atoms: C_7  and  C_23 
REMARK   11  A    between atoms: C_9  and  C_17 
REMARK   12  A    between atoms: C_9  and  C_18 
REMARK   13  A    between atoms: C_14  and  C_19 
REMARK   14  A    between atoms: C_14  and  C_20 
REMARK   15  A    between atoms: C_21  and  C_22 
ROOT
HETATM    1  O   UNL     1      31.755  10.415 -12.041  1.00  0.00    -0.776 OA
HETATM    2  H   UNL     1      31.716  11.169 -12.646  1.00  0.00     0.167 HD
ENDROOT
BRANCH   1   3
HETATM    3  C   UNL     1      30.807   9.454 -12.053  1.00  0.00     0.139 C 
HETATM    4  O   UNL     1      29.801   9.593 -12.735  1.00  0.00    -0.650 OA
BRANCH   3   5
HETATM    5  C   UNL     1      30.993   8.212 -11.228  1.00  0.00     0.113 C 
BRANCH   5   6
HETATM    6  C   UNL     1      30.400   6.989 -11.938  1.00  0.00     0.037 C 
BRANCH   6   7
HETATM    7  C   UNL     1      31.368   6.447 -12.962  1.00  0.00    -0.030 C 
HETATM    8  C   UNL     1      32.300   5.489 -12.771  1.00  0.00    -0.027 C 
BRANCH   8   9
HETATM    9  C   UNL     1      32.597   4.735 -11.493  1.00  0.00     0.053 C 
BRANCH   9  10
HETATM   10  C   UNL     1      33.662   5.438 -10.689  1.00  0.00    -0.027 C 
HETATM   11  C   UNL     1      33.482   6.030  -9.495  1.00  0.00    -0.027 C 
BRANCH  11  12
HETATM   12  C   UNL     1      32.194   6.047  -8.713  1.00  0.00     0.053 C 
BRANCH  12  13
HETATM   13  C   UNL     1      32.127   4.879  -7.760  1.00  0.00    -0.027 C 
HETATM   14  C   UNL     1      32.758   4.772  -6.576  1.00  0.00    -0.027 C 
BRANCH  14  15
HETATM   15  C   UNL     1      33.703   5.782  -5.980  1.00  0.00     0.053 C 
BRANCH  15  16
HETATM   16  C   UNL     1      33.138   6.245  -4.655  1.00  0.00    -0.027 C 
HETATM   17  C   UNL     1      32.890   7.509  -4.256  1.00  0.00    -0.027 C 
BRANCH  17  18
HETATM   18  C   UNL     1      33.099   8.771  -5.051  1.00  0.00     0.053 C 
BRANCH  18  19
HETATM   19  C   UNL     1      32.416   8.674  -6.395  1.00  0.00    -0.027 C 
HETATM   20  C   UNL     1      31.291   9.303  -6.792  1.00  0.00    -0.027 C 
BRANCH  20  21
HETATM   21  C   UNL     1      30.478  10.298  -6.001  1.00  0.00     0.053 C 
BRANCH  21  22
HETATM   22  C   UNL     1      31.026  11.696  -6.171  1.00  0.00    -0.027 C 
HETATM   23  C   UNL     1      30.384  12.767  -6.676  1.00  0.00    -0.031 C 
BRANCH  23  24
HETATM   24  C   UNL     1      28.973  12.801  -7.205  1.00  0.00     0.022 C 
HETATM   25  C   UNL     1      28.866  12.240  -8.617  1.00  0.00     0.009 C 
ENDBRANCH  23  24
ENDBRANCH  21  22
ENDBRANCH  20  21
ENDBRANCH  18  19
ENDBRANCH  17  18
ENDBRANCH  15  16
ENDBRANCH  14  15
ENDBRANCH  12  13
ENDBRANCH  11  12
ENDBRANCH   9  10
ENDBRANCH   8   9
ENDBRANCH   6   7
ENDBRANCH   5   6
ENDBRANCH   3   5
ENDBRANCH   1   3
TORSDOF 15
ENDMDL
MODEL 14
REMARK VINA RESULT:      -4.2     48.086     50.822
REMARK  15 active torsions:
REMARK  status: ('A' for Active; 'I' for Inactive)
REMARK    1  A    between atoms: O_1  and  C_23 
REMARK    2  A    between atoms: C_3  and  C_7 
REMARK    3  A    between atoms: C_3  and  C_8 
REMARK    4  A    between atoms: C_4  and  C_10 
REMARK    5  A    between atoms: C_4  and  C_11 
REMARK    6  A    between atoms: C_5  and  C_12 
REMARK    7  A    between atoms: C_5  and  C_13 
REMARK    8  A    between atoms: C_6  and  C_15 
REMARK    9  A    between atoms: C_6  and  C_16 
REMARK   10  A    between atoms: C_7  and  C_23 
REMARK   11  A    between atoms: C_9  and  C_17 
REMARK   12  A    between atoms: C_9  and  C_18 
REMARK   13  A    between atoms: C_14  and  C_19 
REMARK   14  A    between atoms: C_14  and  C_20 
REMARK   15  A    between atoms: C_21  and  C_22 
ROOT
HETATM    1  O   UNL     1     -21.629  13.254 -10.895  1.00  0.00    -0.776 OA
HETATM    2  H   UNL     1     -22.585  13.363 -10.793  1.00  0.00     0.167 HD
ENDROOT
BRANCH   1   3
HETATM    3  C   UNL     1     -21.066  12.031 -10.995  1.00  0.00     0.139 C 
HETATM    4  O   UNL     1     -21.493  11.225 -11.809  1.00  0.00    -0.650 OA
BRANCH   3   5
HETATM    5  C   UNL     1     -19.913  11.666 -10.104  1.00  0.00     0.113 C 
BRANCH   5   6
HETATM    6  C   UNL     1     -18.583  12.114 -10.720  1.00  0.00     0.037 C 
BRANCH   6   7
HETATM    7  C   UNL     1     -17.574  12.423  -9.640  1.00  0.00    -0.030 C 
HETATM    8  C   UNL     1     -16.333  11.906  -9.515  1.00  0.00    -0.027 C 
BRANCH   8   9
HETATM    9  C   UNL     1     -15.659  10.899 -10.422  1.00  0.00     0.053 C 
BRANCH   9  10
HETATM   10  C   UNL     1     -14.241  11.312 -10.725  1.00  0.00    -0.027 C 
HETATM   11  C   UNL     1     -13.169  11.064  -9.952  1.00  0.00    -0.027 C 
BRANCH  11  12
HETATM   12  C   UNL     1     -13.180  10.275  -8.669  1.00  0.00     0.053 C 
BRANCH  12  13
HETATM   13  C   UNL     1     -12.386  10.979  -7.597  1.00  0.00    -0.027 C 
HETATM   14  C   UNL     1     -12.732  11.120  -6.303  1.00  0.00    -0.027 C 
BRANCH  14  15
HETATM   15  C   UNL     1     -14.012  10.643  -5.670  1.00  0.00     0.053 C 
BRANCH  15  16
HETATM   16  C   UNL     1     -15.066  11.713  -5.852  1.00  0.00    -0.027 C 
HETATM   17  C   UNL     1     -16.352  11.686  -5.448  1.00  0.00    -0.027 C 
BRANCH  17  18
HETATM   18  C   UNL     1     -17.046  10.581  -4.696  1.00  0.00     0.053 C 
BRANCH  18  19
HETATM   19  C   UNL     1     -17.250  10.968  -3.250  1.00  0.00    -0.027 C 
HETATM   20  C   UNL     1     -18.358  11.496  -2.690  1.00  0.00    -0.027 C 
BRANCH  20  21
HETATM   21  C   UNL     1     -19.676  11.775  -3.368  1.00  0.00     0.053 C 
BRANCH  21  22
HETATM   22  C   UNL     1     -19.728  13.196  -3.880  1.00  0.00    -0.027 C 
HETATM   23  C   UNL     1     -19.794  13.598  -5.164  1.00  0.00    -0.031 C 
BRANCH  23  24
HETATM   24  C   UNL     1     -19.813  12.711  -6.382  1.00  0.00     0.022 C 
HETATM   25  C   UNL     1     -21.226  12.411  -6.864  1.00  0.00     0.009 C 
ENDBRANCH  23  24
ENDBRANCH  21  22
ENDBRANCH  20  21
ENDBRANCH  18  19
ENDBRANCH  17  18
ENDBRANCH  15  16
ENDBRANCH  14  15
ENDBRANCH  12  13
ENDBRANCH  11  12
ENDBRANCH   9  10
ENDBRANCH   8   9
ENDBRANCH   6   7
ENDBRANCH   5   6
ENDBRANCH   3   5
ENDBRANCH   1   3
TORSDOF 15
ENDMDL
MODEL 15
REMARK VINA RESULT:      -4.1      7.401     10.910
REMARK  15 active torsions:
REMARK  status: ('A' for Active; 'I' for Inactive)
REMARK    1  A    between atoms: O_1  and  C_23 
REMARK    2  A    between atoms: C_3  and  C_7 
REMARK    3  A    between atoms: C_3  and  C_8 
REMARK    4  A    between atoms: C_4  and  C_10 
REMARK    5  A    between atoms: C_4  and  C_11 
REMARK    6  A    between atoms: C_5  and  C_12 
REMARK    7  A    between atoms: C_5  and  C_13 
REMARK    8  A    between atoms: C_6  and  C_15 
REMARK    9  A    between atoms: C_6  and  C_16 
REMARK   10  A    between atoms: C_7  and  C_23 
REMARK   11  A    between atoms: C_9  and  C_17 
REMARK   12  A    between atoms: C_9  and  C_18 
REMARK   13  A    between atoms: C_14  and  C_19 
REMARK   14  A    between atoms: C_14  and  C_20 
REMARK   15  A    between atoms: C_21  and  C_22 
ROOT
HETATM    1  O   UNL     1      32.629   5.253  -9.619  1.00  0.00    -0.776 OA
HETATM    2  H   UNL     1      33.011   5.603 -10.436  1.00  0.00     0.167 HD
ENDROOT
BRANCH   1   3
HETATM    3  C   UNL     1      31.585   5.860  -9.013  1.00  0.00     0.139 C 
HETATM    4  O   UNL     1      30.960   6.732  -9.599  1.00  0.00    -0.650 OA
BRANCH   3   5
HETATM    5  C   UNL     1      31.194   5.456  -7.620  1.00  0.00     0.113 C 
BRANCH   5   6
HETATM    6  C   UNL     1      32.347   4.732  -6.916  1.00  0.00     0.037 C 
BRANCH   6   7
HETATM    7  C   UNL     1      32.546   5.279  -5.523  1.00  0.00    -0.030 C 
HETATM    8  C   UNL     1      33.437   6.219  -5.139  1.00  0.00    -0.027 C 
BRANCH   8   9
HETATM    9  C   UNL     1      34.442   6.945  -6.007  1.00  0.00     0.053 C 
BRANCH   9  10
HETATM   10  C   UNL     1      34.430   8.425  -5.718  1.00  0.00    -0.027 C 
HETATM   11  C   UNL     1      33.569   9.319  -6.236  1.00  0.00    -0.027 C 
BRANCH  11  12
HETATM   12  C   UNL     1      32.420   8.995  -7.155  1.00  0.00     0.053 C 
BRANCH  12  13
HETATM   13  C   UNL     1      31.108   9.036  -6.412  1.00  0.00    -0.027 C 
HETATM   14  C   UNL     1      30.246  10.069  -6.361  1.00  0.00    -0.027 C 
BRANCH  14  15
HETATM   15  C   UNL     1      30.440  11.418  -7.000  1.00  0.00     0.053 C 
BRANCH  15  16
HETATM   16  C   UNL     1      29.283  11.677  -7.939  1.00  0.00    -0.027 C 
HETATM   17  C   UNL     1      29.041  11.100  -9.134  1.00  0.00    -0.027 C 
BRANCH  17  18
HETATM   18  C   UNL     1      29.863  10.037  -9.814  1.00  0.00     0.053 C 
BRANCH  18  19
HETATM   19  C   UNL     1      31.142  10.623 -10.364  1.00  0.00    -0.027 C 
HETATM   20  C   UNL     1      31.829  10.220 -11.452  1.00  0.00    -0.027 C 
BRANCH  20  21
HETATM   21  C   UNL     1      31.449   9.119 -12.411  1.00  0.00     0.053 C 
BRANCH  21  22
HETATM   22  C   UNL     1      32.531   8.065 -12.477  1.00  0.00    -0.027 C 
HETATM   23  C   UNL     1      32.417   6.808 -12.948  1.00  0.00    -0.031 C 
BRANCH  23  24
HETATM   24  C   UNL     1      31.171   6.167 -13.501  1.00  0.00     0.022 C 
HETATM   25  C   UNL     1      30.604   5.099 -12.573  1.00  0.00     0.009 C 
ENDBRANCH  23  24
ENDBRANCH  21  22
ENDBRANCH  20  21
ENDBRANCH  18  19
ENDBRANCH  17  18
ENDBRANCH  15  16
ENDBRANCH  14  15
ENDBRANCH  12  13
ENDBRANCH  11  12
ENDBRANCH   9  10
ENDBRANCH   8   9
ENDBRANCH   6   7
ENDBRANCH   5   6
ENDBRANCH   3   5
ENDBRANCH   1   3
TORSDOF 15
ENDMDL
MODEL 16
REMARK VINA RESULT:      -4.1     31.904     33.953
REMARK  15 active torsions:
REMARK  status: ('A' for Active; 'I' for Inactive)
REMARK    1  A    between atoms: O_1  and  C_23 
REMARK    2  A    between atoms: C_3  and  C_7 
REMARK    3  A    between atoms: C_3  and  C_8 
REMARK    4  A    between atoms: C_4  and  C_10 
REMARK    5  A    between atoms: C_4  and  C_11 
REMARK    6  A    between atoms: C_5  and  C_12 
REMARK    7  A    between atoms: C_5  and  C_13 
REMARK    8  A    between atoms: C_6  and  C_15 
REMARK    9  A    between atoms: C_6  and  C_16 
REMARK   10  A    between atoms: C_7  and  C_23 
REMARK   11  A    between atoms: C_9  and  C_17 
REMARK   12  A    between atoms: C_9  and  C_18 
REMARK   13  A    between atoms: C_14  and  C_19 
REMARK   14  A    between atoms: C_14  and  C_20 
REMARK   15  A    between atoms: C_21  and  C_22 
ROOT
HETATM    1  O   UNL     1       9.010 -13.825 -20.095  1.00  0.00    -0.776 OA
HETATM    2  H   UNL     1       9.110 -14.228 -20.969  1.00  0.00     0.167 HD
ENDROOT
BRANCH   1   3
HETATM    3  C   UNL     1       7.791 -13.624 -19.549  1.00  0.00     0.139 C 
HETATM    4  O   UNL     1       7.031 -12.798 -20.034  1.00  0.00    -0.650 OA
BRANCH   3   5
HETATM    5  C   UNL     1       7.372 -14.421 -18.347  1.00  0.00     0.113 C 
BRANCH   5   6
HETATM    6  C   UNL     1       8.282 -14.124 -17.149  1.00  0.00     0.037 C 
BRANCH   6   7
HETATM    7  C   UNL     1       7.686 -13.042 -16.283  1.00  0.00    -0.030 C 
HETATM    8  C   UNL     1       7.388 -13.125 -14.968  1.00  0.00    -0.027 C 
BRANCH   8   9
HETATM    9  C   UNL     1       7.580 -14.316 -14.054  1.00  0.00     0.053 C 
BRANCH   9  10
HETATM   10  C   UNL     1       8.647 -14.037 -13.026  1.00  0.00    -0.027 C 
HETATM   11  C   UNL     1       8.431 -13.670 -11.750  1.00  0.00    -0.027 C 
BRANCH  11  12
HETATM   12  C   UNL     1       7.081 -13.526 -11.098  1.00  0.00     0.053 C 
BRANCH  12  13
HETATM   13  C   UNL     1       6.863 -14.605 -10.067  1.00  0.00    -0.027 C 
HETATM   14  C   UNL     1       6.312 -15.815 -10.275  1.00  0.00    -0.027 C 
BRANCH  14  15
HETATM   15  C   UNL     1       5.752 -16.323 -11.577  1.00  0.00     0.053 C 
BRANCH  15  16
HETATM   16  C   UNL     1       6.075 -17.795 -11.697  1.00  0.00    -0.027 C 
HETATM   17  C   UNL     1       7.254 -18.361 -12.027  1.00  0.00    -0.027 C 
BRANCH  17  18
HETATM   18  C   UNL     1       8.546 -17.653 -12.338  1.00  0.00     0.053 C 
BRANCH  18  19
HETATM   19  C   UNL     1       9.431 -18.517 -13.207  1.00  0.00    -0.027 C 
HETATM   20  C   UNL     1       9.751 -18.322 -14.503  1.00  0.00    -0.027 C 
BRANCH  20  21
HETATM   21  C   UNL     1       9.344 -17.161 -15.376  1.00  0.00     0.053 C 
BRANCH  21  22
HETATM   22  C   UNL     1       8.613 -17.645 -16.607  1.00  0.00    -0.027 C 
HETATM   23  C   UNL     1       7.309 -17.968 -16.706  1.00  0.00    -0.031 C 
BRANCH  23  24
HETATM   24  C   UNL     1       6.289 -17.935 -15.597  1.00  0.00     0.022 C 
HETATM   25  C   UNL     1       5.421 -16.683 -15.640  1.00  0.00     0.009 C 
ENDBRANCH  23  24
ENDBRANCH  21  22
ENDBRANCH  20  21
ENDBRANCH  18  19
ENDBRANCH  17  18
ENDBRANCH  15  16
ENDBRANCH  14  15
ENDBRANCH  12  13
ENDBRANCH  11  12
ENDBRANCH   9  10
ENDBRANCH   8   9
ENDBRANCH   6   7
ENDBRANCH   5   6
ENDBRANCH   3   5
ENDBRANCH   1   3
TORSDOF 15
ENDMDL
MODEL 17
REMARK VINA RESULT:      -4.1      7.040     11.577
REMARK  15 active torsions:
REMARK  status: ('A' for Active; 'I' for Inactive)
REMARK    1  A    between atoms: O_1  and  C_23 
REMARK    2  A    between atoms: C_3  and  C_7 
REMARK    3  A    between atoms: C_3  and  C_8 
REMARK    4  A    between atoms: C_4  and  C_10 
REMARK    5  A    between atoms: C_4  and  C_11 
REMARK    6  A    between atoms: C_5  and  C_12 
REMARK    7  A    between atoms: C_5  and  C_13 
REMARK    8  A    between atoms: C_6  and  C_15 
REMARK    9  A    between atoms: C_6  and  C_16 
REMARK   10  A    between atoms: C_7  and  C_23 
REMARK   11  A    between atoms: C_9  and  C_17 
REMARK   12  A    between atoms: C_9  and  C_18 
REMARK   13  A    between atoms: C_14  and  C_19 
REMARK   14  A    between atoms: C_14  and  C_20 
REMARK   15  A    between atoms: C_21  and  C_22 
ROOT
HETATM    1  O   UNL     1      32.056   4.250 -11.698  1.00  0.00    -0.776 OA
HETATM    2  H   UNL     1      32.089   3.308 -11.915  1.00  0.00     0.167 HD
ENDROOT
BRANCH   1   3
HETATM    3  C   UNL     1      31.122   5.064 -12.235  1.00  0.00     0.139 C 
HETATM    4  O   UNL     1      30.130   5.368 -11.588  1.00  0.00    -0.650 OA
BRANCH   3   5
HETATM    5  C   UNL     1      31.308   5.597 -13.627  1.00  0.00     0.113 C 
BRANCH   5   6
HETATM    6  C   UNL     1      32.788   5.581 -14.026  1.00  0.00     0.037 C 
BRANCH   6   7
HETATM    7  C   UNL     1      33.285   6.983 -14.286  1.00  0.00    -0.030 C 
HETATM    8  C   UNL     1      33.397   7.985 -13.388  1.00  0.00    -0.027 C 
BRANCH   8   9
HETATM    9  C   UNL     1      33.054   7.943 -11.914  1.00  0.00     0.053 C 
BRANCH   9  10
HETATM   10  C   UNL     1      34.286   7.686 -11.083  1.00  0.00    -0.027 C 
HETATM   11  C   UNL     1      35.092   8.629 -10.561  1.00  0.00    -0.027 C 
BRANCH  11  12
HETATM   12  C   UNL     1      34.877  10.116 -10.662  1.00  0.00     0.053 C 
BRANCH  12  13
HETATM   13  C   UNL     1      36.045  10.870 -10.075  1.00  0.00    -0.027 C 
HETATM   14  C   UNL     1      36.225  11.189  -8.780  1.00  0.00    -0.027 C 
BRANCH  14  15
HETATM   15  C   UNL     1      35.268  10.900  -7.654  1.00  0.00     0.053 C 
BRANCH  15  16
HETATM   16  C   UNL     1      35.959   9.998  -6.656  1.00  0.00    -0.027 C 
HETATM   17  C   UNL     1      35.438   8.950  -5.986  1.00  0.00    -0.027 C 
BRANCH  17  18
HETATM   18  C   UNL     1      34.035   8.411  -6.090  1.00  0.00     0.053 C 
BRANCH  18  19
HETATM   19  C   UNL     1      33.966   7.294  -7.105  1.00  0.00    -0.027 C 
HETATM   20  C   UNL     1      32.893   6.901  -7.821  1.00  0.00    -0.027 C 
BRANCH  20  21
HETATM   21  C   UNL     1      31.519   7.523  -7.818  1.00  0.00     0.053 C 
BRANCH  21  22
HETATM   22  C   UNL     1      30.709   7.032  -6.641  1.00  0.00    -0.027 C 
HETATM   23  C   UNL     1      30.308   7.747  -5.571  1.00  0.00    -0.031 C 
BRANCH  23  24
HETATM   24  C   UNL     1      30.599   9.201  -5.304  1.00  0.00     0.022 C 
HETATM   25  C   UNL     1      29.336  10.009  -5.036  1.00  0.00     0.009 C 
ENDBRANCH  23  24
ENDBRANCH  21  22
ENDBRANCH  20  21
ENDBRANCH  18  19
ENDBRANCH  17  18
ENDBRANCH  15  16
ENDBRANCH  14  15
ENDBRANCH  12  13
ENDBRANCH  11  12
ENDBRANCH   9  10
ENDBRANCH   8   9
ENDBRANCH   6   7
ENDBRANCH   5   6
ENDBRANCH   3   5
ENDBRANCH   1   3
TORSDOF 15
ENDMDL
MODEL 18
REMARK VINA RESULT:      -4.0     45.156     47.713
REMARK  15 active torsions:
REMARK  status: ('A' for Active; 'I' for Inactive)
REMARK    1  A    between atoms: O_1  and  C_23 
REMARK    2  A    between atoms: C_3  and  C_7 
REMARK    3  A    between atoms: C_3  and  C_8 
REMARK    4  A    between atoms: C_4  and  C_10 
REMARK    5  A    between atoms: C_4  and  C_11 
REMARK    6  A    between atoms: C_5  and  C_12 
REMARK    7  A    between atoms: C_5  and  C_13 
REMARK    8  A    between atoms: C_6  and  C_15 
REMARK    9  A    between atoms: C_6  and  C_16 
REMARK   10  A    between atoms: C_7  and  C_23 
REMARK   11  A    between atoms: C_9  and  C_17 
REMARK   12  A    between atoms: C_9  and  C_18 
REMARK   13  A    between atoms: C_14  and  C_19 
REMARK   14  A    between atoms: C_14  and  C_20 
REMARK   15  A    between atoms: C_21  and  C_22 
ROOT
HETATM    1  O   UNL     1     -20.878  11.103 -20.958  1.00  0.00    -0.776 OA
HETATM    2  H   UNL     1     -20.612  10.185 -20.811  1.00  0.00     0.167 HD
ENDROOT
BRANCH   1   3
HETATM    3  C   UNL     1     -20.731  12.041 -19.998  1.00  0.00     0.139 C 
HETATM    4  O   UNL     1     -20.841  13.226 -20.278  1.00  0.00    -0.650 OA
BRANCH   3   5
HETATM    5  C   UNL     1     -20.435  11.623 -18.586  1.00  0.00     0.113 C 
BRANCH   5   6
HETATM    6  C   UNL     1     -19.136  12.264 -18.086  1.00  0.00     0.037 C 
BRANCH   6   7
HETATM    7  C   UNL     1     -17.966  11.830 -18.935  1.00  0.00    -0.030 C 
HETATM    8  C   UNL     1     -16.893  11.114 -18.536  1.00  0.00    -0.027 C 
BRANCH   8   9
HETATM    9  C   UNL     1     -16.608  10.578 -17.149  1.00  0.00     0.053 C 
BRANCH   9  10
HETATM   10  C   UNL     1     -15.554  11.407 -16.460  1.00  0.00    -0.027 C 
HETATM   11  C   UNL     1     -15.561  11.767 -15.164  1.00  0.00    -0.027 C 
BRANCH  11  12
HETATM   12  C   UNL     1     -16.596  11.358 -14.149  1.00  0.00     0.053 C 
BRANCH  12  13
HETATM   13  C   UNL     1     -15.997  11.292 -12.766  1.00  0.00    -0.027 C 
HETATM   14  C   UNL     1     -15.204  10.320 -12.280  1.00  0.00    -0.027 C 
BRANCH  14  15
HETATM   15  C   UNL     1     -14.789   9.067 -13.005  1.00  0.00     0.053 C 
BRANCH  15  16
HETATM   16  C   UNL     1     -13.455   9.317 -13.672  1.00  0.00    -0.027 C 
HETATM   17  C   UNL     1     -13.054   8.924 -14.898  1.00  0.00    -0.027 C 
BRANCH  17  18
HETATM   18  C   UNL     1     -13.856   8.153 -15.913  1.00  0.00     0.053 C 
BRANCH  18  19
HETATM   19  C   UNL     1     -12.947   7.341 -16.805  1.00  0.00    -0.027 C 
HETATM   20  C   UNL     1     -12.995   7.237 -18.149  1.00  0.00    -0.027 C 
BRANCH  20  21
HETATM   21  C   UNL     1     -13.938   7.954 -19.084  1.00  0.00     0.053 C 
BRANCH  21  22
HETATM   22  C   UNL     1     -13.172   8.709 -20.145  1.00  0.00    -0.027 C 
HETATM   23  C   UNL     1     -12.856  10.019 -20.145  1.00  0.00    -0.031 C 
BRANCH  23  24
HETATM   24  C   UNL     1     -13.217  11.029 -19.087  1.00  0.00     0.022 C 
HETATM   25  C   UNL     1     -12.246  11.017 -17.914  1.00  0.00     0.009 C 
ENDBRANCH  23  24
ENDBRANCH  21  22
ENDBRANCH  20  21
ENDBRANCH  18  19
ENDBRANCH  17  18
ENDBRANCH  15  16
ENDBRANCH  14  15
ENDBRANCH  12  13
ENDBRANCH  11  12
ENDBRANCH   9  10
ENDBRANCH   8   9
ENDBRANCH   6   7
ENDBRANCH   5   6
ENDBRANCH   3   5
ENDBRANCH   1   3
TORSDOF 15
ENDMDL
MODEL 19
REMARK VINA RESULT:      -4.0     37.688     40.699
REMARK  15 active torsions:
REMARK  status: ('A' for Active; 'I' for Inactive)
REMARK    1  A    between atoms: O_1  and  C_23 
REMARK    2  A    between atoms: C_3  and  C_7 
REMARK    3  A    between atoms: C_3  and  C_8 
REMARK    4  A    between atoms: C_4  and  C_10 
REMARK    5  A    between atoms: C_4  and  C_11 
REMARK    6  A    between atoms: C_5  and  C_12 
REMARK    7  A    between atoms: C_5  and  C_13 
REMARK    8  A    between atoms: C_6  and  C_15 
REMARK    9  A    between atoms: C_6  and  C_16 
REMARK   10  A    between atoms: C_7  and  C_23 
REMARK   11  A    between atoms: C_9  and  C_17 
REMARK   12  A    between atoms: C_9  and  C_18 
REMARK   13  A    between atoms: C_14  and  C_19 
REMARK   14  A    between atoms: C_14  and  C_20 
REMARK   15  A    between atoms: C_21  and  C_22 
ROOT
HETATM    1  O   UNL     1      -4.230  14.778 -20.524  1.00  0.00    -0.776 OA
HETATM    2  H   UNL     1      -3.671  14.001 -20.662  1.00  0.00     0.167 HD
ENDROOT
BRANCH   1   3
HETATM    3  C   UNL     1      -5.576  14.697 -20.582  1.00  0.00     0.139 C 
HETATM    4  O   UNL     1      -6.123  13.604 -20.620  1.00  0.00    -0.650 OA
BRANCH   3   5
HETATM    5  C   UNL     1      -6.400  15.954 -20.597  1.00  0.00     0.113 C 
BRANCH   5   6
HETATM    6  C   UNL     1      -6.062  16.843 -19.395  1.00  0.00     0.037 C 
BRANCH   6   7
HETATM    7  C   UNL     1      -7.220  16.891 -18.426  1.00  0.00    -0.030 C 
HETATM    8  C   UNL     1      -7.333  16.217 -17.262  1.00  0.00    -0.027 C 
BRANCH   8   9
HETATM    9  C   UNL     1      -6.333  15.258 -16.651  1.00  0.00     0.053 C 
BRANCH   9  10
HETATM   10  C   UNL     1      -5.082  15.985 -16.227  1.00  0.00    -0.027 C 
HETATM   11  C   UNL     1      -4.750  16.305 -14.963  1.00  0.00    -0.027 C 
BRANCH  11  12
HETATM   12  C   UNL     1      -5.541  15.942 -13.733  1.00  0.00     0.053 C 
BRANCH  12  13
HETATM   13  C   UNL     1      -5.750  17.149 -12.853  1.00  0.00    -0.027 C 
HETATM   14  C   UNL     1      -6.712  18.082 -12.985  1.00  0.00    -0.027 C 
BRANCH  14  15
HETATM   15  C   UNL     1      -7.751  18.137 -14.073  1.00  0.00     0.053 C 
BRANCH  15  16
HETATM   16  C   UNL     1      -7.301  19.136 -15.116  1.00  0.00    -0.027 C 
HETATM   17  C   UNL     1      -7.472  20.474 -15.111  1.00  0.00    -0.027 C 
BRANCH  17  18
HETATM   18  C   UNL     1      -8.141  21.301 -14.045  1.00  0.00     0.053 C 
BRANCH  18  19
HETATM   19  C   UNL     1      -7.118  21.870 -13.091  1.00  0.00    -0.027 C 
HETATM   20  C   UNL     1      -7.217  21.981 -11.750  1.00  0.00    -0.027 C 
BRANCH  20  21
HETATM   21  C   UNL     1      -8.355  21.509 -10.880  1.00  0.00     0.053 C 
BRANCH  21  22
HETATM   22  C   UNL     1      -7.950  20.297 -10.074  1.00  0.00    -0.027 C 
HETATM   23  C   UNL     1      -7.354  20.284  -8.866  1.00  0.00    -0.031 C 
BRANCH  23  24
HETATM   24  C   UNL     1      -6.941  21.486  -8.056  1.00  0.00     0.022 C 
HETATM   25  C   UNL     1      -8.127  22.189  -7.410  1.00  0.00     0.009 C 
ENDBRANCH  23  24
ENDBRANCH  21  22
ENDBRANCH  20  21
ENDBRANCH  18  19
ENDBRANCH  17  18
ENDBRANCH  15  16
ENDBRANCH  14  15
ENDBRANCH  12  13
ENDBRANCH  11  12
ENDBRANCH   9  10
ENDBRANCH   8   9
ENDBRANCH   6   7
ENDBRANCH   5   6
ENDBRANCH   3   5
ENDBRANCH   1   3
TORSDOF 15
ENDMDL
MODEL 20
REMARK VINA RESULT:      -4.0     35.306     38.322
REMARK  15 active torsions:
REMARK  status: ('A' for Active; 'I' for Inactive)
REMARK    1  A    between atoms: O_1  and  C_23 
REMARK    2  A    between atoms: C_3  and  C_7 
REMARK    3  A    between atoms: C_3  and  C_8 
REMARK    4  A    between atoms: C_4  and  C_10 
REMARK    5  A    between atoms: C_4  and  C_11 
REMARK    6  A    between atoms: C_5  and  C_12 
REMARK    7  A    between atoms: C_5  and  C_13 
REMARK    8  A    between atoms: C_6  and  C_15 
REMARK    9  A    between atoms: C_6  and  C_16 
REMARK   10  A    between atoms: C_7  and  C_23 
REMARK   11  A    between atoms: C_9  and  C_17 
REMARK   12  A    between atoms: C_9  and  C_18 
REMARK   13  A    between atoms: C_14  and  C_19 
REMARK   14  A    between atoms: C_14  and  C_20 
REMARK   15  A    between atoms: C_21  and  C_22 
ROOT
HETATM    1  O   UNL     1      -3.951  16.962 -21.003  1.00  0.00    -0.776 OA
HETATM    2  H   UNL     1      -3.113  16.870 -21.478  1.00  0.00     0.167 HD
ENDROOT
BRANCH   1   3
HETATM    3  C   UNL     1      -4.644  15.883 -20.581  1.00  0.00     0.139 C 
HETATM    4  O   UNL     1      -4.166  14.764 -20.699  1.00  0.00    -0.650 OA
BRANCH   3   5
HETATM    5  C   UNL     1      -6.001  16.063 -19.962  1.00  0.00     0.113 C 
BRANCH   5   6
HETATM    6  C   UNL     1      -5.954  17.096 -18.830  1.00  0.00     0.037 C 
BRANCH   6   7
HETATM    7  C   UNL     1      -7.111  16.898 -17.881  1.00  0.00    -0.030 C 
HETATM    8  C   UNL     1      -7.226  15.951 -16.925  1.00  0.00    -0.027 C 
BRANCH   8   9
HETATM    9  C   UNL     1      -6.228  14.867 -16.578  1.00  0.00     0.053 C 
BRANCH   9  10
HETATM   10  C   UNL     1      -5.095  15.425 -15.754  1.00  0.00    -0.027 C 
HETATM   11  C   UNL     1      -5.201  15.928 -14.511  1.00  0.00    -0.027 C 
BRANCH  11  12
HETATM   12  C   UNL     1      -6.464  15.973 -13.691  1.00  0.00     0.053 C 
BRANCH  12  13
HETATM   13  C   UNL     1      -6.525  17.234 -12.865  1.00  0.00    -0.027 C 
HETATM   14  C   UNL     1      -6.948  18.444 -13.277  1.00  0.00    -0.027 C 
BRANCH  14  15
HETATM   15  C   UNL     1      -7.404  18.799 -14.667  1.00  0.00     0.053 C 
BRANCH  15  16
HETATM   16  C   UNL     1      -6.971  20.217 -14.968  1.00  0.00    -0.027 C 
HETATM   17  C   UNL     1      -5.980  20.625 -15.785  1.00  0.00    -0.027 C 
BRANCH  17  18
HETATM   18  C   UNL     1      -5.071  19.757 -16.616  1.00  0.00     0.053 C 
BRANCH  18  19
HETATM   19  C   UNL     1      -4.081  19.027 -15.739  1.00  0.00    -0.027 C 
HETATM   20  C   UNL     1      -2.845  19.434 -15.382  1.00  0.00    -0.027 C 
BRANCH  20  21
HETATM   21  C   UNL     1      -2.181  20.742 -15.732  1.00  0.00     0.053 C 
BRANCH  21  22
HETATM   22  C   UNL     1      -0.939  20.510 -16.560  1.00  0.00    -0.027 C 
HETATM   23  C   UNL     1      -0.872  20.306 -17.890  1.00  0.00    -0.031 C 
BRANCH  23  24
HETATM   24  C   UNL     1      -2.033  20.245 -18.848  1.00  0.00     0.022 C 
HETATM   25  C   UNL     1      -1.656  19.612 -20.181  1.00  0.00     0.009 C 
ENDBRANCH  23  24
ENDBRANCH  21  22
ENDBRANCH  20  21
ENDBRANCH  18  19
ENDBRANCH  17  18
ENDBRANCH  15  16
ENDBRANCH  14  15
ENDBRANCH  12  13
ENDBRANCH  11  12
ENDBRANCH   9  10
ENDBRANCH   8   9
ENDBRANCH   6   7
ENDBRANCH   5   6
ENDBRANCH   3   5
ENDBRANCH   1   3
TORSDOF 15
ENDMDL
