MODEL 1
REMARK VINA RESULT:      -4.2      0.000      0.000
REMARK  15 active torsions:
REMARK  status: ('A' for Active; 'I' for Inactive)
REMARK    1  A    between atoms: O_1  and  C_18 
REMARK    2  A    between atoms: C_3  and  C_4 
REMARK    3  A    between atoms: C_3  and  C_5 
REMARK    4  A    between atoms: C_4  and  C_6 
REMARK    5  A    between atoms: C_5  and  C_7 
REMARK    6  A    between atoms: C_6  and  C_8 
REMARK    7  A    between atoms: C_7  and  C_9 
REMARK    8  A    between atoms: C_8  and  C_10 
REMARK    9  A    between atoms: C_9  and  C_11 
REMARK   10  A    between atoms: C_10  and  C_12 
REMARK   11  A    between atoms: C_11  and  C_13 
REMARK   12  A    between atoms: C_12  and  C_14 
REMARK   13  A    between atoms: C_13  and  C_15 
REMARK   14  A    between atoms: C_14  and  C_16 
REMARK   15  A    between atoms: C_16  and  C_18 
ROOT
HETATM    1  O   UNL     1      33.117   4.169 -16.254  1.00  0.00    -0.776 OA
HETATM    2  H   UNL     1      32.748   3.309 -16.009  1.00  0.00     0.167 HD
ENDROOT
BRANCH   1   3
HETATM    3  C   UNL     1      32.366   5.111 -16.862  1.00  0.00     0.139 C 
HETATM    4  O   UNL     1      32.767   5.636 -17.892  1.00  0.00    -0.650 OA
BRANCH   3   5
HETATM    5  C   UNL     1      31.042   5.495 -16.254  1.00  0.00     0.110 C 
BRANCH   5   6
HETATM    6  C   UNL     1      31.005   5.317 -14.729  1.00  0.00     0.010 C 
BRANCH   6   7
HETATM    7  C   UNL     1      31.792   6.429 -14.027  1.00  0.00     0.001 C 
BRANCH   7   8
HETATM    8  C   UNL     1      32.941   5.848 -13.193  1.00  0.00     0.000 C 
BRANCH   8   9
HETATM    9  C   UNL     1      32.406   5.094 -11.969  1.00  0.00     0.000 C 
BRANCH   9  10
HETATM   10  C   UNL     1      33.304   5.320 -10.748  1.00  0.00     0.000 C 
BRANCH  10  11
HETATM   11  C   UNL     1      32.482   5.322  -9.453  1.00  0.00     0.000 C 
BRANCH  11  12
HETATM   12  C   UNL     1      31.093   5.928  -9.683  1.00  0.00     0.000 C 
BRANCH  12  13
HETATM   13  C   UNL     1      31.015   7.353  -9.123  1.00  0.00     0.000 C 
BRANCH  13  14
HETATM   14  C   UNL     1      30.624   8.354 -10.218  1.00  0.00     0.000 C 
BRANCH  14  15
HETATM   15  C   UNL     1      31.691   9.444 -10.374  1.00  0.00     0.000 C 
BRANCH  15  16
HETATM   16  C   UNL     1      32.933   8.900 -11.088  1.00  0.00     0.000 C 
BRANCH  16  17
HETATM   17  C   UNL     1      34.132   8.833 -10.134  1.00  0.00    -0.000 C 
BRANCH  17  18
HETATM   18  C   UNL     1      35.450   9.026 -10.892  1.00  0.00    -0.005 C 
HETATM   19  C   UNL     1      36.046  10.405 -10.618  1.00  0.00     0.005 C 
ENDBRANCH  17  18
ENDBRANCH  16  17
ENDBRANCH  15  16
ENDBRANCH  14  15
ENDBRANCH  13  14
ENDBRANCH  12  13
ENDBRANCH  11  12
ENDBRANCH  10  11
ENDBRANCH   9  10
ENDBRANCH   8   9
ENDBRANCH   7   8
ENDBRANCH   6   7
ENDBRANCH   5   6
ENDBRANCH   3   5
ENDBRANCH   1   3
TORSDOF 15
ENDMDL
MODEL 2
REMARK VINA RESULT:      -3.9      3.653      6.911
REMARK  15 active torsions:
REMARK  status: ('A' for Active; 'I' for Inactive)
REMARK    1  A    between atoms: O_1  and  C_18 
REMARK    2  A    between atoms: C_3  and  C_4 
REMARK    3  A    between atoms: C_3  and  C_5 
REMARK    4  A    between atoms: C_4  and  C_6 
REMARK    5  A    between atoms: C_5  and  C_7 
REMARK    6  A    between atoms: C_6  and  C_8 
REMARK    7  A    between atoms: C_7  and  C_9 
REMARK    8  A    between atoms: C_8  and  C_10 
REMARK    9  A    between atoms: C_9  and  C_11 
REMARK   10  A    between atoms: C_10  and  C_12 
REMARK   11  A    between atoms: C_11  and  C_13 
REMARK   12  A    between atoms: C_12  and  C_14 
REMARK   13  A    between atoms: C_13  and  C_15 
REMARK   14  A    between atoms: C_14  and  C_16 
REMARK   15  A    between atoms: C_16  and  C_18 
ROOT
HETATM    1  O   UNL     1      28.179  10.429  -9.342  1.00  0.00    -0.776 OA
HETATM    2  H   UNL     1      27.396  10.851  -9.722  1.00  0.00     0.167 HD
ENDROOT
BRANCH   1   3
HETATM    3  C   UNL     1      29.179   9.968 -10.123  1.00  0.00     0.139 C 
HETATM    4  O   UNL     1      29.108  10.092 -11.338  1.00  0.00    -0.650 OA
BRANCH   3   5
HETATM    5  C   UNL     1      30.368   9.308  -9.474  1.00  0.00     0.110 C 
BRANCH   5   6
HETATM    6  C   UNL     1      30.402   7.786  -9.683  1.00  0.00     0.010 C 
BRANCH   6   7
HETATM    7  C   UNL     1      31.208   7.097  -8.577  1.00  0.00     0.001 C 
BRANCH   7   8
HETATM    8  C   UNL     1      31.410   5.609  -8.888  1.00  0.00     0.000 C 
BRANCH   8   9
HETATM    9  C   UNL     1      31.340   5.348 -10.397  1.00  0.00     0.000 C 
BRANCH   9  10
HETATM   10  C   UNL     1      32.744   5.271 -11.008  1.00  0.00     0.000 C 
BRANCH  10  11
HETATM   11  C   UNL     1      32.828   6.094 -12.299  1.00  0.00     0.000 C 
BRANCH  11  12
HETATM   12  C   UNL     1      32.432   5.250 -13.517  1.00  0.00     0.000 C 
BRANCH  12  13
HETATM   13  C   UNL     1      31.050   5.655 -14.041  1.00  0.00     0.000 C 
BRANCH  13  14
HETATM   14  C   UNL     1      31.160   6.796 -15.061  1.00  0.00     0.000 C 
BRANCH  14  15
HETATM   15  C   UNL     1      32.391   6.615 -15.958  1.00  0.00     0.000 C 
BRANCH  15  16
HETATM   16  C   UNL     1      32.166   7.250 -17.335  1.00  0.00     0.000 C 
BRANCH  16  17
HETATM   17  C   UNL     1      33.110   6.646 -18.381  1.00  0.00    -0.000 C 
BRANCH  17  18
HETATM   18  C   UNL     1      32.525   5.358 -18.971  1.00  0.00    -0.005 C 
HETATM   19  C   UNL     1      31.014   5.473 -19.154  1.00  0.00     0.005 C 
ENDBRANCH  17  18
ENDBRANCH  16  17
ENDBRANCH  15  16
ENDBRANCH  14  15
ENDBRANCH  13  14
ENDBRANCH  12  13
ENDBRANCH  11  12
ENDBRANCH  10  11
ENDBRANCH   9  10
ENDBRANCH   8   9
ENDBRANCH   7   8
ENDBRANCH   6   7
ENDBRANCH   5   6
ENDBRANCH   3   5
ENDBRANCH   1   3
TORSDOF 15
ENDMDL
MODEL 3
REMARK VINA RESULT:      -3.9      1.446      3.006
REMARK  15 active torsions:
REMARK  status: ('A' for Active; 'I' for Inactive)
REMARK    1  A    between atoms: O_1  and  C_18 
REMARK    2  A    between atoms: C_3  and  C_4 
REMARK    3  A    between atoms: C_3  and  C_5 
REMARK    4  A    between atoms: C_4  and  C_6 
REMARK    5  A    between atoms: C_5  and  C_7 
REMARK    6  A    between atoms: C_6  and  C_8 
REMARK    7  A    between atoms: C_7  and  C_9 
REMARK    8  A    between atoms: C_8  and  C_10 
REMARK    9  A    between atoms: C_9  and  C_11 
REMARK   10  A    between atoms: C_10  and  C_12 
REMARK   11  A    between atoms: C_11  and  C_13 
REMARK   12  A    between atoms: C_12  and  C_14 
REMARK   13  A    between atoms: C_13  and  C_15 
REMARK   14  A    between atoms: C_14  and  C_16 
REMARK   15  A    between atoms: C_16  and  C_18 
ROOT
HETATM    1  O   UNL     1      33.094   4.195 -16.168  1.00  0.00    -0.776 OA
HETATM    2  H   UNL     1      32.891   3.361 -15.721  1.00  0.00     0.167 HD
ENDROOT
BRANCH   1   3
HETATM    3  C   UNL     1      32.174   4.831 -16.925  1.00  0.00     0.139 C 
HETATM    4  O   UNL     1      32.408   5.053 -18.104  1.00  0.00    -0.650 OA
BRANCH   3   5
HETATM    5  C   UNL     1      30.873   5.252 -16.292  1.00  0.00     0.110 C 
BRANCH   5   6
HETATM    6  C   UNL     1      31.055   5.884 -14.904  1.00  0.00     0.010 C 
BRANCH   6   7
HETATM    7  C   UNL     1      31.910   7.153 -14.985  1.00  0.00     0.001 C 
BRANCH   7   8
HETATM    8  C   UNL     1      33.117   7.065 -14.042  1.00  0.00     0.000 C 
BRANCH   8   9
HETATM    9  C   UNL     1      32.752   7.552 -12.635  1.00  0.00     0.000 C 
BRANCH   9  10
HETATM   10  C   UNL     1      33.882   8.398 -12.036  1.00  0.00     0.000 C 
BRANCH  10  11
HETATM   11  C   UNL     1      34.688   7.592 -11.010  1.00  0.00     0.000 C 
BRANCH  11  12
HETATM   12  C   UNL     1      33.797   6.580 -10.280  1.00  0.00     0.000 C 
BRANCH  12  13
HETATM   13  C   UNL     1      33.292   7.150  -8.950  1.00  0.00     0.000 C 
BRANCH  13  14
HETATM   14  C   UNL     1      31.860   6.684  -8.660  1.00  0.00     0.000 C 
BRANCH  14  15
HETATM   15  C   UNL     1      30.905   7.878  -8.541  1.00  0.00     0.000 C 
BRANCH  15  16
HETATM   16  C   UNL     1      30.444   8.354  -9.923  1.00  0.00     0.000 C 
BRANCH  16  17
HETATM   17  C   UNL     1      30.914   9.787 -10.197  1.00  0.00    -0.000 C 
BRANCH  17  18
HETATM   18  C   UNL     1      29.926  10.526 -11.107  1.00  0.00    -0.005 C 
HETATM   19  C   UNL     1      29.161  11.598 -10.336  1.00  0.00     0.005 C 
ENDBRANCH  17  18
ENDBRANCH  16  17
ENDBRANCH  15  16
ENDBRANCH  14  15
ENDBRANCH  13  14
ENDBRANCH  12  13
ENDBRANCH  11  12
ENDBRANCH  10  11
ENDBRANCH   9  10
ENDBRANCH   8   9
ENDBRANCH   7   8
ENDBRANCH   6   7
ENDBRANCH   5   6
ENDBRANCH   3   5
ENDBRANCH   1   3
TORSDOF 15
ENDMDL
MODEL 4
REMARK VINA RESULT:      -3.8      3.947      8.001
REMARK  15 active torsions:
REMARK  status: ('A' for Active; 'I' for Inactive)
REMARK    1  A    between atoms: O_1  and  C_18 
REMARK    2  A    between atoms: C_3  and  C_4 
REMARK    3  A    between atoms: C_3  and  C_5 
REMARK    4  A    between atoms: C_4  and  C_6 
REMARK    5  A    between atoms: C_5  and  C_7 
REMARK    6  A    between atoms: C_6  and  C_8 
REMARK    7  A    between atoms: C_7  and  C_9 
REMARK    8  A    between atoms: C_8  and  C_10 
REMARK    9  A    between atoms: C_9  and  C_11 
REMARK   10  A    between atoms: C_10  and  C_12 
REMARK   11  A    between atoms: C_11  and  C_13 
REMARK   12  A    between atoms: C_12  and  C_14 
REMARK   13  A    between atoms: C_13  and  C_15 
REMARK   14  A    between atoms: C_14  and  C_16 
REMARK   15  A    between atoms: C_16  and  C_18 
ROOT
HETATM    1  O   UNL     1      33.379   7.016  -8.523  1.00  0.00    -0.776 OA
HETATM    2  H   UNL     1      33.640   7.557  -9.280  1.00  0.00     0.167 HD
ENDROOT
BRANCH   1   3
HETATM    3  C   UNL     1      32.758   5.828  -8.687  1.00  0.00     0.139 C 
HETATM    4  O   UNL     1      32.789   4.998  -7.790  1.00  0.00    -0.650 OA
BRANCH   3   5
HETATM    5  C   UNL     1      32.038   5.553  -9.982  1.00  0.00     0.110 C 
BRANCH   5   6
HETATM    6  C   UNL     1      31.506   6.826 -10.658  1.00  0.00     0.010 C 
BRANCH   6   7
HETATM    7  C   UNL     1      30.795   6.493 -11.974  1.00  0.00     0.001 C 
BRANCH   7   8
HETATM    8  C   UNL     1      31.330   5.186 -12.573  1.00  0.00     0.000 C 
BRANCH   8   9
HETATM    9  C   UNL     1      32.171   5.458 -13.826  1.00  0.00     0.000 C 
BRANCH   9  10
HETATM   10  C   UNL     1      31.351   6.201 -14.888  1.00  0.00     0.000 C 
BRANCH  10  11
HETATM   11  C   UNL     1      30.459   5.230 -15.672  1.00  0.00     0.000 C 
BRANCH  11  12
HETATM   12  C   UNL     1      30.588   5.461 -17.182  1.00  0.00     0.000 C 
BRANCH  12  13
HETATM   13  C   UNL     1      31.895   6.187 -17.519  1.00  0.00     0.000 C 
BRANCH  13  14
HETATM   14  C   UNL     1      31.991   6.479 -19.021  1.00  0.00     0.000 C 
BRANCH  14  15
HETATM   15  C   UNL     1      32.697   5.336 -19.760  1.00  0.00     0.000 C 
BRANCH  15  16
HETATM   16  C   UNL     1      33.857   5.866 -20.612  1.00  0.00     0.000 C 
BRANCH  16  17
HETATM   17  C   UNL     1      34.281   7.266 -20.153  1.00  0.00    -0.000 C 
BRANCH  17  18
HETATM   18  C   UNL     1      34.503   8.195 -21.353  1.00  0.00    -0.005 C 
HETATM   19  C   UNL     1      33.219   8.366 -22.161  1.00  0.00     0.005 C 
ENDBRANCH  17  18
ENDBRANCH  16  17
ENDBRANCH  15  16
ENDBRANCH  14  15
ENDBRANCH  13  14
ENDBRANCH  12  13
ENDBRANCH  11  12
ENDBRANCH  10  11
ENDBRANCH   9  10
ENDBRANCH   8   9
ENDBRANCH   7   8
ENDBRANCH   6   7
ENDBRANCH   5   6
ENDBRANCH   3   5
ENDBRANCH   1   3
TORSDOF 15
ENDMDL
MODEL 5
REMARK VINA RESULT:      -3.7     20.586     23.226
REMARK  15 active torsions:
REMARK  status: ('A' for Active; 'I' for Inactive)
REMARK    1  A    between atoms: O_1  and  C_18 
REMARK    2  A    between atoms: C_3  and  C_4 
REMARK    3  A    between atoms: C_3  and  C_5 
REMARK    4  A    between atoms: C_4  and  C_6 
REMARK    5  A    between atoms: C_5  and  C_7 
REMARK    6  A    between atoms: C_6  and  C_8 
REMARK    7  A    between atoms: C_7  and  C_9 
REMARK    8  A    between atoms: C_8  and  C_10 
REMARK    9  A    between atoms: C_9  and  C_11 
REMARK   10  A    between atoms: C_10  and  C_12 
REMARK   11  A    between atoms: C_11  and  C_13 
REMARK   12  A    between atoms: C_12  and  C_14 
REMARK   13  A    between atoms: C_13  and  C_15 
REMARK   14  A    between atoms: C_14  and  C_16 
REMARK   15  A    between atoms: C_16  and  C_18 
ROOT
HETATM    1  O   UNL     1      45.887  -5.409 -18.807  1.00  0.00    -0.776 OA
HETATM    2  H   UNL     1      45.066  -5.920 -18.800  1.00  0.00     0.167 HD
ENDROOT
BRANCH   1   3
HETATM    3  C   UNL     1      46.970  -5.826 -19.496  1.00  0.00     0.139 C 
HETATM    4  O   UNL     1      47.767  -6.590 -18.970  1.00  0.00    -0.650 OA
BRANCH   3   5
HETATM    5  C   UNL     1      47.171  -5.338 -20.907  1.00  0.00     0.110 C 
BRANCH   5   6
HETATM    6  C   UNL     1      48.036  -6.283 -21.755  1.00  0.00     0.010 C 
BRANCH   6   7
HETATM    7  C   UNL     1      47.451  -6.451 -23.161  1.00  0.00     0.001 C 
BRANCH   7   8
HETATM    8  C   UNL     1      46.125  -5.691 -23.300  1.00  0.00     0.000 C 
BRANCH   8   9
HETATM    9  C   UNL     1      45.081  -6.536 -24.040  1.00  0.00     0.000 C 
BRANCH   9  10
HETATM   10  C   UNL     1      44.343  -5.700 -25.091  1.00  0.00     0.000 C 
BRANCH  10  11
HETATM   11  C   UNL     1      45.139  -5.634 -26.400  1.00  0.00     0.000 C 
BRANCH  11  12
HETATM   12  C   UNL     1      45.800  -6.982 -26.711  1.00  0.00     0.000 C 
BRANCH  12  13
HETATM   13  C   UNL     1      47.079  -6.791 -27.533  1.00  0.00     0.000 C 
BRANCH  13  14
HETATM   14  C   UNL     1      48.104  -5.946 -26.767  1.00  0.00     0.000 C 
BRANCH  14  15
HETATM   15  C   UNL     1      48.589  -4.764 -27.616  1.00  0.00     0.000 C 
BRANCH  15  16
HETATM   16  C   UNL     1      48.022  -3.440 -27.090  1.00  0.00     0.000 C 
BRANCH  16  17
HETATM   17  C   UNL     1      47.693  -2.486 -28.245  1.00  0.00    -0.000 C 
BRANCH  17  18
HETATM   18  C   UNL     1      48.740  -1.372 -28.354  1.00  0.00    -0.005 C 
HETATM   19  C   UNL     1      49.626  -1.326 -27.112  1.00  0.00     0.005 C 
ENDBRANCH  17  18
ENDBRANCH  16  17
ENDBRANCH  15  16
ENDBRANCH  14  15
ENDBRANCH  13  14
ENDBRANCH  12  13
ENDBRANCH  11  12
ENDBRANCH  10  11
ENDBRANCH   9  10
ENDBRANCH   8   9
ENDBRANCH   7   8
ENDBRANCH   6   7
ENDBRANCH   5   6
ENDBRANCH   3   5
ENDBRANCH   1   3
TORSDOF 15
ENDMDL
MODEL 6
REMARK VINA RESULT:      -3.7     49.386     51.422
REMARK  15 active torsions:
REMARK  status: ('A' for Active; 'I' for Inactive)
REMARK    1  A    between atoms: O_1  and  C_18 
REMARK    2  A    between atoms: C_3  and  C_4 
REMARK    3  A    between atoms: C_3  and  C_5 
REMARK    4  A    between atoms: C_4  and  C_6 
REMARK    5  A    between atoms: C_5  and  C_7 
REMARK    6  A    between atoms: C_6  and  C_8 
REMARK    7  A    between atoms: C_7  and  C_9 
REMARK    8  A    between atoms: C_8  and  C_10 
REMARK    9  A    between atoms: C_9  and  C_11 
REMARK   10  A    between atoms: C_10  and  C_12 
REMARK   11  A    between atoms: C_11  and  C_13 
REMARK   12  A    between atoms: C_12  and  C_14 
REMARK   13  A    between atoms: C_13  and  C_15 
REMARK   14  A    between atoms: C_14  and  C_16 
REMARK   15  A    between atoms: C_16  and  C_18 
ROOT
HETATM    1  O   UNL     1     -20.632  11.404  -5.846  1.00  0.00    -0.776 OA
HETATM    2  H   UNL     1     -20.677  11.352  -6.811  1.00  0.00     0.167 HD
ENDROOT
BRANCH   1   3
HETATM    3  C   UNL     1     -20.478  12.586  -5.212  1.00  0.00     0.139 C 
HETATM    4  O   UNL     1     -21.454  13.290  -4.995  1.00  0.00    -0.650 OA
BRANCH   3   5
HETATM    5  C   UNL     1     -19.098  13.010  -4.782  1.00  0.00     0.110 C 
BRANCH   5   6
HETATM    6  C   UNL     1     -17.980  12.223  -5.483  1.00  0.00     0.010 C 
BRANCH   6   7
HETATM    7  C   UNL     1     -17.355  11.193  -4.536  1.00  0.00     0.001 C 
BRANCH   7   8
HETATM    8  C   UNL     1     -15.909  11.569  -4.190  1.00  0.00     0.000 C 
BRANCH   8   9
HETATM    9  C   UNL     1     -15.081  11.799  -5.461  1.00  0.00     0.000 C 
BRANCH   9  10
HETATM   10  C   UNL     1     -14.872  10.487  -6.226  1.00  0.00     0.000 C 
BRANCH  10  11
HETATM   11  C   UNL     1     -14.520  10.757  -7.694  1.00  0.00     0.000 C 
BRANCH  11  12
HETATM   12  C   UNL     1     -15.683  10.381  -8.619  1.00  0.00     0.000 C 
BRANCH  12  13
HETATM   13  C   UNL     1     -15.715  11.283  -9.858  1.00  0.00     0.000 C 
BRANCH  13  14
HETATM   14  C   UNL     1     -16.913  12.239  -9.811  1.00  0.00     0.000 C 
BRANCH  14  15
HETATM   15  C   UNL     1     -18.144  11.552  -9.210  1.00  0.00     0.000 C 
BRANCH  15  16
HETATM   16  C   UNL     1     -19.257  12.567  -8.925  1.00  0.00     0.000 C 
BRANCH  16  17
HETATM   17  C   UNL     1     -19.500  13.471 -10.139  1.00  0.00    -0.000 C 
BRANCH  17  18
HETATM   18  C   UNL     1     -20.574  12.880 -11.059  1.00  0.00    -0.005 C 
HETATM   19  C   UNL     1     -20.548  13.543 -12.434  1.00  0.00     0.005 C 
ENDBRANCH  17  18
ENDBRANCH  16  17
ENDBRANCH  15  16
ENDBRANCH  14  15
ENDBRANCH  13  14
ENDBRANCH  12  13
ENDBRANCH  11  12
ENDBRANCH  10  11
ENDBRANCH   9  10
ENDBRANCH   8   9
ENDBRANCH   7   8
ENDBRANCH   6   7
ENDBRANCH   5   6
ENDBRANCH   3   5
ENDBRANCH   1   3
TORSDOF 15
ENDMDL
MODEL 7
REMARK VINA RESULT:      -3.7      4.267      7.896
REMARK  15 active torsions:
REMARK  status: ('A' for Active; 'I' for Inactive)
REMARK    1  A    between atoms: O_1  and  C_18 
REMARK    2  A    between atoms: C_3  and  C_4 
REMARK    3  A    between atoms: C_3  and  C_5 
REMARK    4  A    between atoms: C_4  and  C_6 
REMARK    5  A    between atoms: C_5  and  C_7 
REMARK    6  A    between atoms: C_6  and  C_8 
REMARK    7  A    between atoms: C_7  and  C_9 
REMARK    8  A    between atoms: C_8  and  C_10 
REMARK    9  A    between atoms: C_9  and  C_11 
REMARK   10  A    between atoms: C_10  and  C_12 
REMARK   11  A    between atoms: C_11  and  C_13 
REMARK   12  A    between atoms: C_12  and  C_14 
REMARK   13  A    between atoms: C_13  and  C_15 
REMARK   14  A    between atoms: C_14  and  C_16 
REMARK   15  A    between atoms: C_16  and  C_18 
ROOT
HETATM    1  O   UNL     1      30.317   9.176  -7.584  1.00  0.00    -0.776 OA
HETATM    2  H   UNL     1      30.649   9.561  -8.408  1.00  0.00     0.167 HD
ENDROOT
BRANCH   1   3
HETATM    3  C   UNL     1      30.521   7.876  -7.282  1.00  0.00     0.139 C 
HETATM    4  O   UNL     1      30.404   7.496  -6.126  1.00  0.00    -0.650 OA
BRANCH   3   5
HETATM    5  C   UNL     1      30.891   6.919  -8.385  1.00  0.00     0.110 C 
BRANCH   5   6
HETATM    6  C   UNL     1      32.409   6.770  -8.571  1.00  0.00     0.010 C 
BRANCH   6   7
HETATM    7  C   UNL     1      32.758   5.397  -9.158  1.00  0.00     0.001 C 
BRANCH   7   8
HETATM    8  C   UNL     1      33.221   5.523 -10.615  1.00  0.00     0.000 C 
BRANCH   8   9
HETATM    9  C   UNL     1      32.351   4.669 -11.545  1.00  0.00     0.000 C 
BRANCH   9  10
HETATM   10  C   UNL     1      31.205   5.495 -12.139  1.00  0.00     0.000 C 
BRANCH  10  11
HETATM   11  C   UNL     1      31.152   5.344 -13.664  1.00  0.00     0.000 C 
BRANCH  11  12
HETATM   12  C   UNL     1      32.561   5.343 -14.268  1.00  0.00     0.000 C 
BRANCH  12  13
HETATM   13  C   UNL     1      32.513   5.087 -15.779  1.00  0.00     0.000 C 
BRANCH  13  14
HETATM   14  C   UNL     1      31.100   5.316 -16.331  1.00  0.00     0.000 C 
BRANCH  14  15
HETATM   15  C   UNL     1      31.143   5.677 -17.820  1.00  0.00     0.000 C 
BRANCH  15  16
HETATM   16  C   UNL     1      32.484   5.276 -18.445  1.00  0.00     0.000 C 
BRANCH  16  17
HETATM   17  C   UNL     1      33.059   6.418 -19.293  1.00  0.00    -0.000 C 
BRANCH  17  18
HETATM   18  C   UNL     1      32.410   6.452 -20.681  1.00  0.00    -0.005 C 
HETATM   19  C   UNL     1      33.067   7.504 -21.571  1.00  0.00     0.005 C 
ENDBRANCH  17  18
ENDBRANCH  16  17
ENDBRANCH  15  16
ENDBRANCH  14  15
ENDBRANCH  13  14
ENDBRANCH  12  13
ENDBRANCH  11  12
ENDBRANCH  10  11
ENDBRANCH   9  10
ENDBRANCH   8   9
ENDBRANCH   7   8
ENDBRANCH   6   7
ENDBRANCH   5   6
ENDBRANCH   3   5
ENDBRANCH   1   3
TORSDOF 15
ENDMDL
MODEL 8
REMARK VINA RESULT:      -3.7      3.920      6.753
REMARK  15 active torsions:
REMARK  status: ('A' for Active; 'I' for Inactive)
REMARK    1  A    between atoms: O_1  and  C_18 
REMARK    2  A    between atoms: C_3  and  C_4 
REMARK    3  A    between atoms: C_3  and  C_5 
REMARK    4  A    between atoms: C_4  and  C_6 
REMARK    5  A    between atoms: C_5  and  C_7 
REMARK    6  A    between atoms: C_6  and  C_8 
REMARK    7  A    between atoms: C_7  and  C_9 
REMARK    8  A    between atoms: C_8  and  C_10 
REMARK    9  A    between atoms: C_9  and  C_11 
REMARK   10  A    between atoms: C_10  and  C_12 
REMARK   11  A    between atoms: C_11  and  C_13 
REMARK   12  A    between atoms: C_12  and  C_14 
REMARK   13  A    between atoms: C_13  and  C_15 
REMARK   14  A    between atoms: C_14  and  C_16 
REMARK   15  A    between atoms: C_16  and  C_18 
ROOT
HETATM    1  O   UNL     1      28.613  12.680 -11.437  1.00  0.00    -0.776 OA
HETATM    2  H   UNL     1      28.333  13.024 -10.578  1.00  0.00     0.167 HD
ENDROOT
BRANCH   1   3
HETATM    3  C   UNL     1      29.799  12.055 -11.593  1.00  0.00     0.139 C 
HETATM    4  O   UNL     1      30.833  12.625 -11.273  1.00  0.00    -0.650 OA
BRANCH   3   5
HETATM    5  C   UNL     1      29.821  10.659 -12.161  1.00  0.00     0.110 C 
BRANCH   5   6
HETATM    6  C   UNL     1      30.634   9.673 -11.307  1.00  0.00     0.010 C 
BRANCH   6   7
HETATM    7  C   UNL     1      29.881   9.307 -10.024  1.00  0.00     0.001 C 
BRANCH   7   8
HETATM    8  C   UNL     1      30.667   8.280  -9.199  1.00  0.00     0.000 C 
BRANCH   8   9
HETATM    9  C   UNL     1      31.565   7.423 -10.098  1.00  0.00     0.000 C 
BRANCH   9  10
HETATM   10  C   UNL     1      31.260   5.932  -9.919  1.00  0.00     0.000 C 
BRANCH  10  11
HETATM   11  C   UNL     1      30.949   5.268 -11.267  1.00  0.00     0.000 C 
BRANCH  11  12
HETATM   12  C   UNL     1      32.234   4.809 -11.965  1.00  0.00     0.000 C 
BRANCH  12  13
HETATM   13  C   UNL     1      32.310   5.357 -13.394  1.00  0.00     0.000 C 
BRANCH  13  14
HETATM   14  C   UNL     1      31.127   6.286 -13.691  1.00  0.00     0.000 C 
BRANCH  14  15
HETATM   15  C   UNL     1      31.347   7.057 -14.998  1.00  0.00     0.000 C 
BRANCH  15  16
HETATM   16  C   UNL     1      30.423   6.537 -16.105  1.00  0.00     0.000 C 
BRANCH  16  17
HETATM   17  C   UNL     1      31.041   6.765 -17.490  1.00  0.00    -0.000 C 
BRANCH  17  18
HETATM   18  C   UNL     1      31.148   5.449 -18.268  1.00  0.00    -0.005 C 
HETATM   19  C   UNL     1      32.481   5.352 -19.005  1.00  0.00     0.005 C 
ENDBRANCH  17  18
ENDBRANCH  16  17
ENDBRANCH  15  16
ENDBRANCH  14  15
ENDBRANCH  13  14
ENDBRANCH  12  13
ENDBRANCH  11  12
ENDBRANCH  10  11
ENDBRANCH   9  10
ENDBRANCH   8   9
ENDBRANCH   7   8
ENDBRANCH   6   7
ENDBRANCH   5   6
ENDBRANCH   3   5
ENDBRANCH   1   3
TORSDOF 15
ENDMDL
MODEL 9
REMARK VINA RESULT:      -3.7      3.734      6.411
REMARK  15 active torsions:
REMARK  status: ('A' for Active; 'I' for Inactive)
REMARK    1  A    between atoms: O_1  and  C_18 
REMARK    2  A    between atoms: C_3  and  C_4 
REMARK    3  A    between atoms: C_3  and  C_5 
REMARK    4  A    between atoms: C_4  and  C_6 
REMARK    5  A    between atoms: C_5  and  C_7 
REMARK    6  A    between atoms: C_6  and  C_8 
REMARK    7  A    between atoms: C_7  and  C_9 
REMARK    8  A    between atoms: C_8  and  C_10 
REMARK    9  A    between atoms: C_9  and  C_11 
REMARK   10  A    between atoms: C_10  and  C_12 
REMARK   11  A    between atoms: C_11  and  C_13 
REMARK   12  A    between atoms: C_12  and  C_14 
REMARK   13  A    between atoms: C_13  and  C_15 
REMARK   14  A    between atoms: C_14  and  C_16 
REMARK   15  A    between atoms: C_16  and  C_18 
ROOT
HETATM    1  O   UNL     1      33.347   6.952  -8.527  1.00  0.00    -0.776 OA
HETATM    2  H   UNL     1      33.615   7.471  -9.299  1.00  0.00     0.167 HD
ENDROOT
BRANCH   1   3
HETATM    3  C   UNL     1      32.761   5.744  -8.660  1.00  0.00     0.139 C 
HETATM    4  O   UNL     1      32.831   4.932  -7.748  1.00  0.00    -0.650 OA
BRANCH   3   5
HETATM    5  C   UNL     1      32.028   5.424  -9.937  1.00  0.00     0.110 C 
BRANCH   5   6
HETATM    6  C   UNL     1      31.345   6.649 -10.564  1.00  0.00     0.010 C 
BRANCH   6   7
HETATM    7  C   UNL     1      30.549   6.255 -11.813  1.00  0.00     0.001 C 
BRANCH   7   8
HETATM    8  C   UNL     1      31.184   5.046 -12.512  1.00  0.00     0.000 C 
BRANCH   8   9
HETATM    9  C   UNL     1      31.932   5.474 -13.780  1.00  0.00     0.000 C 
BRANCH   9  10
HETATM   10  C   UNL     1      30.952   5.867 -14.891  1.00  0.00     0.000 C 
BRANCH  10  11
HETATM   11  C   UNL     1      31.197   5.039 -16.159  1.00  0.00     0.000 C 
BRANCH  11  12
HETATM   12  C   UNL     1      31.449   5.946 -17.369  1.00  0.00     0.000 C 
BRANCH  12  13
HETATM   13  C   UNL     1      32.787   6.683 -17.235  1.00  0.00     0.000 C 
BRANCH  13  14
HETATM   14  C   UNL     1      32.627   8.175 -17.553  1.00  0.00     0.000 C 
BRANCH  14  15
HETATM   15  C   UNL     1      31.185   8.638 -17.311  1.00  0.00     0.000 C 
BRANCH  15  16
HETATM   16  C   UNL     1      31.123   9.675 -16.184  1.00  0.00     0.000 C 
BRANCH  16  17
HETATM   17  C   UNL     1      32.385   9.620 -15.315  1.00  0.00    -0.000 C 
BRANCH  17  18
HETATM   18  C   UNL     1      32.035   9.312 -13.855  1.00  0.00    -0.005 C 
HETATM   19  C   UNL     1      30.526   9.364 -13.627  1.00  0.00     0.005 C 
ENDBRANCH  17  18
ENDBRANCH  16  17
ENDBRANCH  15  16
ENDBRANCH  14  15
ENDBRANCH  13  14
ENDBRANCH  12  13
ENDBRANCH  11  12
ENDBRANCH  10  11
ENDBRANCH   9  10
ENDBRANCH   8   9
ENDBRANCH   7   8
ENDBRANCH   6   7
ENDBRANCH   5   6
ENDBRANCH   3   5
ENDBRANCH   1   3
TORSDOF 15
ENDMDL
MODEL 10
REMARK VINA RESULT:      -3.6      4.929      8.014
REMARK  15 active torsions:
REMARK  status: ('A' for Active; 'I' for Inactive)
REMARK    1  A    between atoms: O_1  and  C_18 
REMARK    2  A    between atoms: C_3  and  C_4 
REMARK    3  A    between atoms: C_3  and  C_5 
REMARK    4  A    between atoms: C_4  and  C_6 
REMARK    5  A    between atoms: C_5  and  C_7 
REMARK    6  A    between atoms: C_6  and  C_8 
REMARK    7  A    between atoms: C_7  and  C_9 
REMARK    8  A    between atoms: C_8  and  C_10 
REMARK    9  A    between atoms: C_9  and  C_11 
REMARK   10  A    between atoms: C_10  and  C_12 
REMARK   11  A    between atoms: C_11  and  C_13 
REMARK   12  A    between atoms: C_12  and  C_14 
REMARK   13  A    between atoms: C_13  and  C_15 
REMARK   14  A    between atoms: C_14  and  C_16 
REMARK   15  A    between atoms: C_16  and  C_18 
ROOT
HETATM    1  O   UNL     1      29.007  10.303  -6.653  1.00  0.00    -0.776 OA
HETATM    2  H   UNL     1      28.249  10.901  -6.588  1.00  0.00     0.167 HD
ENDROOT
BRANCH   1   3
HETATM    3  C   UNL     1      29.920  10.213  -5.663  1.00  0.00     0.139 C 
HETATM    4  O   UNL     1      29.814  10.922  -4.673  1.00  0.00    -0.650 OA
BRANCH   3   5
HETATM    5  C   UNL     1      31.055   9.232  -5.804  1.00  0.00     0.110 C 
BRANCH   5   6
HETATM    6  C   UNL     1      30.792   7.898  -5.088  1.00  0.00     0.010 C 
BRANCH   6   7
HETATM    7  C   UNL     1      30.548   6.771  -6.098  1.00  0.00     0.001 C 
BRANCH   7   8
HETATM    8  C   UNL     1      31.390   5.535  -5.757  1.00  0.00     0.000 C 
BRANCH   8   9
HETATM    9  C   UNL     1      31.848   4.813  -7.030  1.00  0.00     0.000 C 
BRANCH   9  10
HETATM   10  C   UNL     1      31.034   5.272  -8.246  1.00  0.00     0.000 C 
BRANCH  10  11
HETATM   11  C   UNL     1      31.945   5.532  -9.451  1.00  0.00     0.000 C 
BRANCH  11  12
HETATM   12  C   UNL     1      31.196   6.290 -10.554  1.00  0.00     0.000 C 
BRANCH  12  13
HETATM   13  C   UNL     1      30.341   5.336 -11.395  1.00  0.00     0.000 C 
BRANCH  13  14
HETATM   14  C   UNL     1      30.793   5.340 -12.861  1.00  0.00     0.000 C 
BRANCH  14  15
HETATM   15  C   UNL     1      31.148   6.758 -13.324  1.00  0.00     0.000 C 
BRANCH  15  16
HETATM   16  C   UNL     1      32.343   6.741 -14.284  1.00  0.00     0.000 C 
BRANCH  16  17
HETATM   17  C   UNL     1      32.101   5.769 -15.445  1.00  0.00    -0.000 C 
BRANCH  17  18
HETATM   18  C   UNL     1      30.973   6.268 -16.355  1.00  0.00    -0.005 C 
HETATM   19  C   UNL     1      30.049   5.125 -16.766  1.00  0.00     0.005 C 
ENDBRANCH  17  18
ENDBRANCH  16  17
ENDBRANCH  15  16
ENDBRANCH  14  15
ENDBRANCH  13  14
ENDBRANCH  12  13
ENDBRANCH  11  12
ENDBRANCH  10  11
ENDBRANCH   9  10
ENDBRANCH   8   9
ENDBRANCH   7   8
ENDBRANCH   6   7
ENDBRANCH   5   6
ENDBRANCH   3   5
ENDBRANCH   1   3
TORSDOF 15
ENDMDL
MODEL 11
REMARK VINA RESULT:      -3.6      4.118      6.837
REMARK  15 active torsions:
REMARK  status: ('A' for Active; 'I' for Inactive)
REMARK    1  A    between atoms: O_1  and  C_18 
REMARK    2  A    between atoms: C_3  and  C_4 
REMARK    3  A    between atoms: C_3  and  C_5 
REMARK    4  A    between atoms: C_4  and  C_6 
REMARK    5  A    between atoms: C_5  and  C_7 
REMARK    6  A    between atoms: C_6  and  C_8 
REMARK    7  A    between atoms: C_7  and  C_9 
REMARK    8  A    between atoms: C_8  and  C_10 
REMARK    9  A    between atoms: C_9  and  C_11 
REMARK   10  A    between atoms: C_10  and  C_12 
REMARK   11  A    between atoms: C_11  and  C_13 
REMARK   12  A    between atoms: C_12  and  C_14 
REMARK   13  A    between atoms: C_13  and  C_15 
REMARK   14  A    between atoms: C_14  and  C_16 
REMARK   15  A    between atoms: C_16  and  C_18 
ROOT
HETATM    1  O   UNL     1      30.481   8.917  -7.625  1.00  0.00    -0.776 OA
HETATM    2  H   UNL     1      30.768   9.355  -8.438  1.00  0.00     0.167 HD
ENDROOT
BRANCH   1   3
HETATM    3  C   UNL     1      30.760   7.618  -7.388  1.00  0.00     0.139 C 
HETATM    4  O   UNL     1      30.671   7.175  -6.252  1.00  0.00    -0.650 OA
BRANCH   3   5
HETATM    5  C   UNL     1      31.177   6.739  -8.539  1.00  0.00     0.110 C 
BRANCH   5   6
HETATM    6  C   UNL     1      32.702   6.587  -8.660  1.00  0.00     0.010 C 
BRANCH   6   7
HETATM    7  C   UNL     1      33.066   5.462  -9.635  1.00  0.00     0.001 C 
BRANCH   7   8
HETATM    8  C   UNL     1      33.586   6.031 -10.961  1.00  0.00     0.000 C 
BRANCH   8   9
HETATM    9  C   UNL     1      32.800   5.464 -12.150  1.00  0.00     0.000 C 
BRANCH   9  10
HETATM   10  C   UNL     1      31.489   6.231 -12.358  1.00  0.00     0.000 C 
BRANCH  10  11
HETATM   11  C   UNL     1      31.228   6.480 -13.848  1.00  0.00     0.000 C 
BRANCH  11  12
HETATM   12  C   UNL     1      31.528   5.226 -14.678  1.00  0.00     0.000 C 
BRANCH  12  13
HETATM   13  C   UNL     1      31.181   5.447 -16.154  1.00  0.00     0.000 C 
BRANCH  13  14
HETATM   14  C   UNL     1      30.385   6.744 -16.345  1.00  0.00     0.000 C 
BRANCH  14  15
HETATM   15  C   UNL     1      31.216   7.796 -17.089  1.00  0.00     0.000 C 
BRANCH  15  16
HETATM   16  C   UNL     1      32.301   7.133 -17.946  1.00  0.00     0.000 C 
BRANCH  16  17
HETATM   17  C   UNL     1      33.680   7.733 -17.648  1.00  0.00    -0.000 C 
BRANCH  17  18
HETATM   18  C   UNL     1      33.896   7.893 -16.138  1.00  0.00    -0.005 C 
HETATM   19  C   UNL     1      35.192   8.643 -15.843  1.00  0.00     0.005 C 
ENDBRANCH  17  18
ENDBRANCH  16  17
ENDBRANCH  15  16
ENDBRANCH  14  15
ENDBRANCH  13  14
ENDBRANCH  12  13
ENDBRANCH  11  12
ENDBRANCH  10  11
ENDBRANCH   9  10
ENDBRANCH   8   9
ENDBRANCH   7   8
ENDBRANCH   6   7
ENDBRANCH   5   6
ENDBRANCH   3   5
ENDBRANCH   1   3
TORSDOF 15
ENDMDL
MODEL 12
REMARK VINA RESULT:      -3.5      3.656      5.790
REMARK  15 active torsions:
REMARK  status: ('A' for Active; 'I' for Inactive)
REMARK    1  A    between atoms: O_1  and  C_18 
REMARK    2  A    between atoms: C_3  and  C_4 
REMARK    3  A    between atoms: C_3  and  C_5 
REMARK    4  A    between atoms: C_4  and  C_6 
REMARK    5  A    between atoms: C_5  and  C_7 
REMARK    6  A    between atoms: C_6  and  C_8 
REMARK    7  A    between atoms: C_7  and  C_9 
REMARK    8  A    between atoms: C_8  and  C_10 
REMARK    9  A    between atoms: C_9  and  C_11 
REMARK   10  A    between atoms: C_10  and  C_12 
REMARK   11  A    between atoms: C_11  and  C_13 
REMARK   12  A    between atoms: C_12  and  C_14 
REMARK   13  A    between atoms: C_13  and  C_15 
REMARK   14  A    between atoms: C_14  and  C_16 
REMARK   15  A    between atoms: C_16  and  C_18 
ROOT
HETATM    1  O   UNL     1      29.288  12.776 -16.680  1.00  0.00    -0.776 OA
HETATM    2  H   UNL     1      28.630  13.485 -16.703  1.00  0.00     0.167 HD
ENDROOT
BRANCH   1   3
HETATM    3  C   UNL     1      29.322  11.880 -15.671  1.00  0.00     0.139 C 
HETATM    4  O   UNL     1      28.331  11.710 -14.976  1.00  0.00    -0.650 OA
BRANCH   3   5
HETATM    5  C   UNL     1      30.591  11.104 -15.426  1.00  0.00     0.110 C 
BRANCH   5   6
HETATM    6  C   UNL     1      30.405   9.939 -14.442  1.00  0.00     0.010 C 
BRANCH   6   7
HETATM    7  C   UNL     1      30.150   8.625 -15.188  1.00  0.00     0.001 C 
BRANCH   7   8
HETATM    8  C   UNL     1      31.042   8.516 -16.431  1.00  0.00     0.000 C 
BRANCH   8   9
HETATM    9  C   UNL     1      30.764   7.217 -17.197  1.00  0.00     0.000 C 
BRANCH   9  10
HETATM   10  C   UNL     1      32.006   6.318 -17.223  1.00  0.00     0.000 C 
BRANCH  10  11
HETATM   11  C   UNL     1      31.930   5.242 -16.134  1.00  0.00     0.000 C 
BRANCH  11  12
HETATM   12  C   UNL     1      32.815   5.606 -14.937  1.00  0.00     0.000 C 
BRANCH  12  13
HETATM   13  C   UNL     1      32.034   5.504 -13.622  1.00  0.00     0.000 C 
BRANCH  13  14
HETATM   14  C   UNL     1      32.937   5.806 -12.420  1.00  0.00     0.000 C 
BRANCH  14  15
HETATM   15  C   UNL     1      32.782   4.736 -11.332  1.00  0.00     0.000 C 
BRANCH  15  16
HETATM   16  C   UNL     1      32.748   5.370  -9.937  1.00  0.00     0.000 C 
BRANCH  16  17
HETATM   17  C   UNL     1      31.309   5.482  -9.418  1.00  0.00    -0.000 C 
BRANCH  17  18
HETATM   18  C   UNL     1      31.145   6.710  -8.515  1.00  0.00    -0.005 C 
HETATM   19  C   UNL     1      32.342   7.648  -8.637  1.00  0.00     0.005 C 
ENDBRANCH  17  18
ENDBRANCH  16  17
ENDBRANCH  15  16
ENDBRANCH  14  15
ENDBRANCH  13  14
ENDBRANCH  12  13
ENDBRANCH  11  12
ENDBRANCH  10  11
ENDBRANCH   9  10
ENDBRANCH   8   9
ENDBRANCH   7   8
ENDBRANCH   6   7
ENDBRANCH   5   6
ENDBRANCH   3   5
ENDBRANCH   1   3
TORSDOF 15
ENDMDL
MODEL 13
REMARK VINA RESULT:      -3.5     49.037     50.790
REMARK  15 active torsions:
REMARK  status: ('A' for Active; 'I' for Inactive)
REMARK    1  A    between atoms: O_1  and  C_18 
REMARK    2  A    between atoms: C_3  and  C_4 
REMARK    3  A    between atoms: C_3  and  C_5 
REMARK    4  A    between atoms: C_4  and  C_6 
REMARK    5  A    between atoms: C_5  and  C_7 
REMARK    6  A    between atoms: C_6  and  C_8 
REMARK    7  A    between atoms: C_7  and  C_9 
REMARK    8  A    between atoms: C_8  and  C_10 
REMARK    9  A    between atoms: C_9  and  C_11 
REMARK   10  A    between atoms: C_10  and  C_12 
REMARK   11  A    between atoms: C_11  and  C_13 
REMARK   12  A    between atoms: C_12  and  C_14 
REMARK   13  A    between atoms: C_13  and  C_15 
REMARK   14  A    between atoms: C_14  and  C_16 
REMARK   15  A    between atoms: C_16  and  C_18 
ROOT
HETATM    1  O   UNL     1     -15.741   7.455 -16.599  1.00  0.00    -0.776 OA
HETATM    2  H   UNL     1     -15.599   7.177 -17.515  1.00  0.00     0.167 HD
ENDROOT
BRANCH   1   3
HETATM    3  C   UNL     1     -16.201   8.688 -16.300  1.00  0.00     0.139 C 
HETATM    4  O   UNL     1     -17.323   8.822 -15.834  1.00  0.00    -0.650 OA
BRANCH   3   5
HETATM    5  C   UNL     1     -15.311   9.879 -16.548  1.00  0.00     0.110 C 
BRANCH   5   6
HETATM    6  C   UNL     1     -14.840  10.560 -15.254  1.00  0.00     0.010 C 
BRANCH   6   7
HETATM    7  C   UNL     1     -15.781  11.704 -14.861  1.00  0.00     0.001 C 
BRANCH   7   8
HETATM    8  C   UNL     1     -16.640  11.318 -13.650  1.00  0.00     0.000 C 
BRANCH   8   9
HETATM    9  C   UNL     1     -18.054  11.899 -13.770  1.00  0.00     0.000 C 
BRANCH   9  10
HETATM   10  C   UNL     1     -18.189  12.761 -15.031  1.00  0.00     0.000 C 
BRANCH  10  11
HETATM   11  C   UNL     1     -19.591  13.373 -15.131  1.00  0.00     0.000 C 
BRANCH  11  12
HETATM   12  C   UNL     1     -20.442  12.634 -16.170  1.00  0.00     0.000 C 
BRANCH  12  13
HETATM   13  C   UNL     1     -20.609  13.473 -17.442  1.00  0.00     0.000 C 
BRANCH  13  14
HETATM   14  C   UNL     1     -19.823  12.865 -18.610  1.00  0.00     0.000 C 
BRANCH  14  15
HETATM   15  C   UNL     1     -19.743  11.338 -18.484  1.00  0.00     0.000 C 
BRANCH  15  16
HETATM   16  C   UNL     1     -18.292  10.854 -18.581  1.00  0.00     0.000 C 
BRANCH  16  17
HETATM   17  C   UNL     1     -17.332  12.030 -18.790  1.00  0.00    -0.000 C 
BRANCH  17  18
HETATM   18  C   UNL     1     -16.198  11.651 -19.750  1.00  0.00    -0.005 C 
HETATM   19  C   UNL     1     -16.746  11.237 -21.113  1.00  0.00     0.005 C 
ENDBRANCH  17  18
ENDBRANCH  16  17
ENDBRANCH  15  16
ENDBRANCH  14  15
ENDBRANCH  13  14
ENDBRANCH  12  13
ENDBRANCH  11  12
ENDBRANCH  10  11
ENDBRANCH   9  10
ENDBRANCH   8   9
ENDBRANCH   7   8
ENDBRANCH   6   7
ENDBRANCH   5   6
ENDBRANCH   3   5
ENDBRANCH   1   3
TORSDOF 15
ENDMDL
MODEL 14
REMARK VINA RESULT:      -3.5     48.099     49.925
REMARK  15 active torsions:
REMARK  status: ('A' for Active; 'I' for Inactive)
REMARK    1  A    between atoms: O_1  and  C_18 
REMARK    2  A    between atoms: C_3  and  C_4 
REMARK    3  A    between atoms: C_3  and  C_5 
REMARK    4  A    between atoms: C_4  and  C_6 
REMARK    5  A    between atoms: C_5  and  C_7 
REMARK    6  A    between atoms: C_6  and  C_8 
REMARK    7  A    between atoms: C_7  and  C_9 
REMARK    8  A    between atoms: C_8  and  C_10 
REMARK    9  A    between atoms: C_9  and  C_11 
REMARK   10  A    between atoms: C_10  and  C_12 
REMARK   11  A    between atoms: C_11  and  C_13 
REMARK   12  A    between atoms: C_12  and  C_14 
REMARK   13  A    between atoms: C_13  and  C_15 
REMARK   14  A    between atoms: C_14  and  C_16 
REMARK   15  A    between atoms: C_16  and  C_18 
ROOT
HETATM    1  O   UNL     1     -19.575  11.390 -12.383  1.00  0.00    -0.776 OA
HETATM    2  H   UNL     1     -19.830  10.756 -11.698  1.00  0.00     0.167 HD
ENDROOT
BRANCH   1   3
HETATM    3  C   UNL     1     -18.363  11.338 -12.975  1.00  0.00     0.139 C 
HETATM    4  O   UNL     1     -17.436  10.771 -12.413  1.00  0.00    -0.650 OA
BRANCH   3   5
HETATM    5  C   UNL     1     -18.181  11.983 -14.324  1.00  0.00     0.110 C 
BRANCH   5   6
HETATM    6  C   UNL     1     -16.705  12.165 -14.711  1.00  0.00     0.010 C 
BRANCH   6   7
HETATM    7  C   UNL     1     -16.338  11.283 -15.910  1.00  0.00     0.001 C 
BRANCH   7   8
HETATM    8  C   UNL     1     -15.743   9.947 -15.447  1.00  0.00     0.000 C 
BRANCH   8   9
HETATM    9  C   UNL     1     -14.769   9.387 -16.492  1.00  0.00     0.000 C 
BRANCH   9  10
HETATM   10  C   UNL     1     -13.908  10.503 -17.095  1.00  0.00     0.000 C 
BRANCH  10  11
HETATM   11  C   UNL     1     -12.995   9.957 -18.199  1.00  0.00     0.000 C 
BRANCH  11  12
HETATM   12  C   UNL     1     -13.703   9.975 -19.559  1.00  0.00     0.000 C 
BRANCH  12  13
HETATM   13  C   UNL     1     -13.755  11.395 -20.134  1.00  0.00     0.000 C 
BRANCH  13  14
HETATM   14  C   UNL     1     -15.120  11.679 -20.774  1.00  0.00     0.000 C 
BRANCH  14  15
HETATM   15  C   UNL     1     -16.254  11.057 -19.951  1.00  0.00     0.000 C 
BRANCH  15  16
HETATM   16  C   UNL     1     -17.119  12.142 -19.298  1.00  0.00     0.000 C 
BRANCH  16  17
HETATM   17  C   UNL     1     -18.343  12.464 -20.162  1.00  0.00    -0.000 C 
BRANCH  17  18
HETATM   18  C   UNL     1     -19.483  13.034 -19.311  1.00  0.00    -0.005 C 
HETATM   19  C   UNL     1     -19.457  12.456 -17.898  1.00  0.00     0.005 C 
ENDBRANCH  17  18
ENDBRANCH  16  17
ENDBRANCH  15  16
ENDBRANCH  14  15
ENDBRANCH  13  14
ENDBRANCH  12  13
ENDBRANCH  11  12
ENDBRANCH  10  11
ENDBRANCH   9  10
ENDBRANCH   8   9
ENDBRANCH   7   8
ENDBRANCH   6   7
ENDBRANCH   5   6
ENDBRANCH   3   5
ENDBRANCH   1   3
TORSDOF 15
ENDMDL
MODEL 15
REMARK VINA RESULT:      -3.5      4.980      7.410
REMARK  15 active torsions:
REMARK  status: ('A' for Active; 'I' for Inactive)
REMARK    1  A    between atoms: O_1  and  C_18 
REMARK    2  A    between atoms: C_3  and  C_4 
REMARK    3  A    between atoms: C_3  and  C_5 
REMARK    4  A    between atoms: C_4  and  C_6 
REMARK    5  A    between atoms: C_5  and  C_7 
REMARK    6  A    between atoms: C_6  and  C_8 
REMARK    7  A    between atoms: C_7  and  C_9 
REMARK    8  A    between atoms: C_8  and  C_10 
REMARK    9  A    between atoms: C_9  and  C_11 
REMARK   10  A    between atoms: C_10  and  C_12 
REMARK   11  A    between atoms: C_11  and  C_13 
REMARK   12  A    between atoms: C_12  and  C_14 
REMARK   13  A    between atoms: C_13  and  C_15 
REMARK   14  A    between atoms: C_14  and  C_16 
REMARK   15  A    between atoms: C_16  and  C_18 
ROOT
HETATM    1  O   UNL     1      28.988  10.295  -6.640  1.00  0.00    -0.776 OA
HETATM    2  H   UNL     1      28.225  10.887  -6.584  1.00  0.00     0.167 HD
ENDROOT
BRANCH   1   3
HETATM    3  C   UNL     1      29.897  10.222  -5.644  1.00  0.00     0.139 C 
HETATM    4  O   UNL     1      29.779  10.941  -4.661  1.00  0.00    -0.650 OA
BRANCH   3   5
HETATM    5  C   UNL     1      31.041   9.250  -5.769  1.00  0.00     0.110 C 
BRANCH   5   6
HETATM    6  C   UNL     1      30.793   7.928  -5.025  1.00  0.00     0.010 C 
BRANCH   6   7
HETATM    7  C   UNL     1      30.562   6.778  -6.011  1.00  0.00     0.001 C 
BRANCH   7   8
HETATM    8  C   UNL     1      31.426   5.563  -5.652  1.00  0.00     0.000 C 
BRANCH   8   9
HETATM    9  C   UNL     1      31.891   4.826  -6.914  1.00  0.00     0.000 C 
BRANCH   9  10
HETATM   10  C   UNL     1      31.056   5.239  -8.131  1.00  0.00     0.000 C 
BRANCH  10  11
HETATM   11  C   UNL     1      31.955   5.574  -9.328  1.00  0.00     0.000 C 
BRANCH  11  12
HETATM   12  C   UNL     1      31.167   6.303 -10.423  1.00  0.00     0.000 C 
BRANCH  12  13
HETATM   13  C   UNL     1      30.393   5.310 -11.297  1.00  0.00     0.000 C 
BRANCH  13  14
HETATM   14  C   UNL     1      30.869   5.372 -12.753  1.00  0.00     0.000 C 
BRANCH  14  15
HETATM   15  C   UNL     1      31.123   6.820 -13.189  1.00  0.00     0.000 C 
BRANCH  15  16
HETATM   16  C   UNL     1      32.309   6.904 -14.156  1.00  0.00     0.000 C 
BRANCH  16  17
HETATM   17  C   UNL     1      33.304   7.985 -13.715  1.00  0.00    -0.000 C 
BRANCH  17  18
HETATM   18  C   UNL     1      33.837   7.700 -12.307  1.00  0.00    -0.005 C 
HETATM   19  C   UNL     1      33.796   8.954 -11.438  1.00  0.00     0.005 C 
ENDBRANCH  17  18
ENDBRANCH  16  17
ENDBRANCH  15  16
ENDBRANCH  14  15
ENDBRANCH  13  14
ENDBRANCH  12  13
ENDBRANCH  11  12
ENDBRANCH  10  11
ENDBRANCH   9  10
ENDBRANCH   8   9
ENDBRANCH   7   8
ENDBRANCH   6   7
ENDBRANCH   5   6
ENDBRANCH   3   5
ENDBRANCH   1   3
TORSDOF 15
ENDMDL
MODEL 16
REMARK VINA RESULT:      -3.5      2.895      4.961
REMARK  15 active torsions:
REMARK  status: ('A' for Active; 'I' for Inactive)
REMARK    1  A    between atoms: O_1  and  C_18 
REMARK    2  A    between atoms: C_3  and  C_4 
REMARK    3  A    between atoms: C_3  and  C_5 
REMARK    4  A    between atoms: C_4  and  C_6 
REMARK    5  A    between atoms: C_5  and  C_7 
REMARK    6  A    between atoms: C_6  and  C_8 
REMARK    7  A    between atoms: C_7  and  C_9 
REMARK    8  A    between atoms: C_8  and  C_10 
REMARK    9  A    between atoms: C_9  and  C_11 
REMARK   10  A    between atoms: C_10  and  C_12 
REMARK   11  A    between atoms: C_11  and  C_13 
REMARK   12  A    between atoms: C_12  and  C_14 
REMARK   13  A    between atoms: C_13  and  C_15 
REMARK   14  A    between atoms: C_14  and  C_16 
REMARK   15  A    between atoms: C_16  and  C_18 
ROOT
HETATM    1  O   UNL     1      30.122   8.020 -21.354  1.00  0.00    -0.776 OA
HETATM    2  H   UNL     1      29.722   8.254 -22.203  1.00  0.00     0.167 HD
ENDROOT
BRANCH   1   3
HETATM    3  C   UNL     1      31.457   8.089 -21.162  1.00  0.00     0.139 C 
HETATM    4  O   UNL     1      32.013   9.178 -21.154  1.00  0.00    -0.650 OA
BRANCH   3   5
HETATM    5  C   UNL     1      32.233   6.813 -20.961  1.00  0.00     0.110 C 
BRANCH   5   6
HETATM    6  C   UNL     1      32.972   6.763 -19.615  1.00  0.00     0.010 C 
BRANCH   6   7
HETATM    7  C   UNL     1      32.718   5.432 -18.898  1.00  0.00     0.001 C 
BRANCH   7   8
HETATM    8  C   UNL     1      31.411   5.479 -18.097  1.00  0.00     0.000 C 
BRANCH   8   9
HETATM    9  C   UNL     1      31.257   6.822 -17.373  1.00  0.00     0.000 C 
BRANCH   9  10
HETATM   10  C   UNL     1      30.579   6.638 -16.011  1.00  0.00     0.000 C 
BRANCH  10  11
HETATM   11  C   UNL     1      31.337   5.617 -15.153  1.00  0.00     0.000 C 
BRANCH  11  12
HETATM   12  C   UNL     1      31.055   5.832 -13.662  1.00  0.00     0.000 C 
BRANCH  12  13
HETATM   13  C   UNL     1      32.081   5.094 -12.795  1.00  0.00     0.000 C 
BRANCH  13  14
HETATM   14  C   UNL     1      33.052   6.080 -12.133  1.00  0.00     0.000 C 
BRANCH  14  15
HETATM   15  C   UNL     1      33.725   5.450 -10.907  1.00  0.00     0.000 C 
BRANCH  15  16
HETATM   16  C   UNL     1      32.786   5.463  -9.696  1.00  0.00     0.000 C 
BRANCH  16  17
HETATM   17  C   UNL     1      32.629   6.882  -9.137  1.00  0.00    -0.000 C 
BRANCH  17  18
HETATM   18  C   UNL     1      33.148   6.966  -7.697  1.00  0.00    -0.005 C 
HETATM   19  C   UNL     1      34.111   8.138  -7.526  1.00  0.00     0.005 C 
ENDBRANCH  17  18
ENDBRANCH  16  17
ENDBRANCH  15  16
ENDBRANCH  14  15
ENDBRANCH  13  14
ENDBRANCH  12  13
ENDBRANCH  11  12
ENDBRANCH  10  11
ENDBRANCH   9  10
ENDBRANCH   8   9
ENDBRANCH   7   8
ENDBRANCH   6   7
ENDBRANCH   5   6
ENDBRANCH   3   5
ENDBRANCH   1   3
TORSDOF 15
ENDMDL
MODEL 17
REMARK VINA RESULT:      -3.5      2.847      4.516
REMARK  15 active torsions:
REMARK  status: ('A' for Active; 'I' for Inactive)
REMARK    1  A    between atoms: O_1  and  C_18 
REMARK    2  A    between atoms: C_3  and  C_4 
REMARK    3  A    between atoms: C_3  and  C_5 
REMARK    4  A    between atoms: C_4  and  C_6 
REMARK    5  A    between atoms: C_5  and  C_7 
REMARK    6  A    between atoms: C_6  and  C_8 
REMARK    7  A    between atoms: C_7  and  C_9 
REMARK    8  A    between atoms: C_8  and  C_10 
REMARK    9  A    between atoms: C_9  and  C_11 
REMARK   10  A    between atoms: C_10  and  C_12 
REMARK   11  A    between atoms: C_11  and  C_13 
REMARK   12  A    between atoms: C_12  and  C_14 
REMARK   13  A    between atoms: C_13  and  C_15 
REMARK   14  A    between atoms: C_14  and  C_16 
REMARK   15  A    between atoms: C_16  and  C_18 
ROOT
HETATM    1  O   UNL     1      33.272   4.152 -11.460  1.00  0.00    -0.776 OA
HETATM    2  H   UNL     1      33.330   3.264 -11.837  1.00  0.00     0.167 HD
ENDROOT
BRANCH   1   3
HETATM    3  C   UNL     1      32.302   5.014 -11.833  1.00  0.00     0.139 C 
HETATM    4  O   UNL     1      31.865   4.978 -12.974  1.00  0.00    -0.650 OA
BRANCH   3   5
HETATM    5  C   UNL     1      31.779   6.006 -10.827  1.00  0.00     0.110 C 
BRANCH   5   6
HETATM    6  C   UNL     1      30.913   5.358  -9.736  1.00  0.00     0.010 C 
BRANCH   6   7
HETATM    7  C   UNL     1      31.605   5.429  -8.370  1.00  0.00     0.001 C 
BRANCH   7   8
HETATM    8  C   UNL     1      32.959   6.142  -8.476  1.00  0.00     0.000 C 
BRANCH   8   9
HETATM    9  C   UNL     1      32.881   7.561  -7.901  1.00  0.00     0.000 C 
BRANCH   9  10
HETATM   10  C   UNL     1      31.595   7.755  -7.090  1.00  0.00     0.000 C 
BRANCH  10  11
HETATM   11  C   UNL     1      30.771   8.927  -7.636  1.00  0.00     0.000 C 
BRANCH  11  12
HETATM   12  C   UNL     1      31.232   9.315  -9.046  1.00  0.00     0.000 C 
BRANCH  12  13
HETATM   13  C   UNL     1      30.096   9.151 -10.062  1.00  0.00     0.000 C 
BRANCH  13  14
HETATM   14  C   UNL     1      29.858  10.454 -10.835  1.00  0.00     0.000 C 
BRANCH  14  15
HETATM   15  C   UNL     1      30.306  10.317 -12.296  1.00  0.00     0.000 C 
BRANCH  15  16
HETATM   16  C   UNL     1      30.701   8.871 -12.617  1.00  0.00     0.000 C 
BRANCH  16  17
HETATM   17  C   UNL     1      32.089   8.811 -13.265  1.00  0.00    -0.000 C 
BRANCH  17  18
HETATM   18  C   UNL     1      32.023   8.155 -14.648  1.00  0.00    -0.005 C 
HETATM   19  C   UNL     1      32.292   9.171 -15.754  1.00  0.00     0.005 C 
ENDBRANCH  17  18
ENDBRANCH  16  17
ENDBRANCH  15  16
ENDBRANCH  14  15
ENDBRANCH  13  14
ENDBRANCH  12  13
ENDBRANCH  11  12
ENDBRANCH  10  11
ENDBRANCH   9  10
ENDBRANCH   8   9
ENDBRANCH   7   8
ENDBRANCH   6   7
ENDBRANCH   5   6
ENDBRANCH   3   5
ENDBRANCH   1   3
TORSDOF 15
ENDMDL
MODEL 18
REMARK VINA RESULT:      -3.4     47.785     49.685
REMARK  15 active torsions:
REMARK  status: ('A' for Active; 'I' for Inactive)
REMARK    1  A    between atoms: O_1  and  C_18 
REMARK    2  A    between atoms: C_3  and  C_4 
REMARK    3  A    between atoms: C_3  and  C_5 
REMARK    4  A    between atoms: C_4  and  C_6 
REMARK    5  A    between atoms: C_5  and  C_7 
REMARK    6  A    between atoms: C_6  and  C_8 
REMARK    7  A    between atoms: C_7  and  C_9 
REMARK    8  A    between atoms: C_8  and  C_10 
REMARK    9  A    between atoms: C_9  and  C_11 
REMARK   10  A    between atoms: C_10  and  C_12 
REMARK   11  A    between atoms: C_11  and  C_13 
REMARK   12  A    between atoms: C_12  and  C_14 
REMARK   13  A    between atoms: C_13  and  C_15 
REMARK   14  A    between atoms: C_14  and  C_16 
REMARK   15  A    between atoms: C_16  and  C_18 
ROOT
HETATM    1  O   UNL     1     -18.995  10.304  -7.356  1.00  0.00    -0.776 OA
HETATM    2  H   UNL     1     -18.228  10.375  -6.771  1.00  0.00     0.167 HD
ENDROOT
BRANCH   1   3
HETATM    3  C   UNL     1     -19.324  11.298  -8.209  1.00  0.00     0.139 C 
HETATM    4  O   UNL     1     -20.501  11.565  -8.406  1.00  0.00    -0.650 OA
BRANCH   3   5
HETATM    5  C   UNL     1     -18.224  12.060  -8.901  1.00  0.00     0.110 C 
BRANCH   5   6
HETATM    6  C   UNL     1     -16.874  11.327  -8.875  1.00  0.00     0.010 C 
BRANCH   6   7
HETATM    7  C   UNL     1     -15.973  11.794 -10.024  1.00  0.00     0.001 C 
BRANCH   7   8
HETATM    8  C   UNL     1     -14.879  10.760 -10.321  1.00  0.00     0.000 C 
BRANCH   8   9
HETATM    9  C   UNL     1     -13.513  11.436 -10.487  1.00  0.00     0.000 C 
BRANCH   9  10
HETATM   10  C   UNL     1     -12.839  11.001 -11.793  1.00  0.00     0.000 C 
BRANCH  10  11
HETATM   11  C   UNL     1     -13.787  10.147 -12.644  1.00  0.00     0.000 C 
BRANCH  11  12
HETATM   12  C   UNL     1     -14.180  10.878 -13.933  1.00  0.00     0.000 C 
BRANCH  12  13
HETATM   13  C   UNL     1     -15.644  11.328 -13.887  1.00  0.00     0.000 C 
BRANCH  13  14
HETATM   14  C   UNL     1     -16.153  11.688 -15.288  1.00  0.00     0.000 C 
BRANCH  14  15
HETATM   15  C   UNL     1     -15.350  10.956 -16.371  1.00  0.00     0.000 C 
BRANCH  15  16
HETATM   16  C   UNL     1     -15.982  11.155 -17.753  1.00  0.00     0.000 C 
BRANCH  16  17
HETATM   17  C   UNL     1     -17.499  10.940 -17.701  1.00  0.00    -0.000 C 
BRANCH  17  18
HETATM   18  C   UNL     1     -18.223  11.893 -18.659  1.00  0.00    -0.005 C 
HETATM   19  C   UNL     1     -17.281  12.401 -19.747  1.00  0.00     0.005 C 
ENDBRANCH  17  18
ENDBRANCH  16  17
ENDBRANCH  15  16
ENDBRANCH  14  15
ENDBRANCH  13  14
ENDBRANCH  12  13
ENDBRANCH  11  12
ENDBRANCH  10  11
ENDBRANCH   9  10
ENDBRANCH   8   9
ENDBRANCH   7   8
ENDBRANCH   6   7
ENDBRANCH   5   6
ENDBRANCH   3   5
ENDBRANCH   1   3
TORSDOF 15
ENDMDL
MODEL 19
REMARK VINA RESULT:      -3.4      3.074      4.425
REMARK  15 active torsions:
REMARK  status: ('A' for Active; 'I' for Inactive)
REMARK    1  A    between atoms: O_1  and  C_18 
REMARK    2  A    between atoms: C_3  and  C_4 
REMARK    3  A    between atoms: C_3  and  C_5 
REMARK    4  A    between atoms: C_4  and  C_6 
REMARK    5  A    between atoms: C_5  and  C_7 
REMARK    6  A    between atoms: C_6  and  C_8 
REMARK    7  A    between atoms: C_7  and  C_9 
REMARK    8  A    between atoms: C_8  and  C_10 
REMARK    9  A    between atoms: C_9  and  C_11 
REMARK   10  A    between atoms: C_10  and  C_12 
REMARK   11  A    between atoms: C_11  and  C_13 
REMARK   12  A    between atoms: C_12  and  C_14 
REMARK   13  A    between atoms: C_13  and  C_15 
REMARK   14  A    between atoms: C_14  and  C_16 
REMARK   15  A    between atoms: C_16  and  C_18 
ROOT
HETATM    1  O   UNL     1      29.994  10.916 -18.029  1.00  0.00    -0.776 OA
HETATM    2  H   UNL     1      30.092  10.512 -18.903  1.00  0.00     0.167 HD
ENDROOT
BRANCH   1   3
HETATM    3  C   UNL     1      29.970  10.167 -16.906  1.00  0.00     0.139 C 
HETATM    4  O   UNL     1      29.064  10.312 -16.098  1.00  0.00    -0.650 OA
BRANCH   3   5
HETATM    5  C   UNL     1      31.069   9.162 -16.675  1.00  0.00     0.110 C 
BRANCH   5   6
HETATM    6  C   UNL     1      32.180   9.230 -17.734  1.00  0.00     0.010 C 
BRANCH   6   7
HETATM    7  C   UNL     1      32.533   7.831 -18.250  1.00  0.00     0.001 C 
BRANCH   7   8
HETATM    8  C   UNL     1      32.642   6.829 -17.094  1.00  0.00     0.000 C 
BRANCH   8   9
HETATM    9  C   UNL     1      33.878   7.115 -16.232  1.00  0.00     0.000 C 
BRANCH   9  10
HETATM   10  C   UNL     1      33.791   6.385 -14.887  1.00  0.00     0.000 C 
BRANCH  10  11
HETATM   11  C   UNL     1      32.404   5.760 -14.689  1.00  0.00     0.000 C 
BRANCH  11  12
HETATM   12  C   UNL     1      31.740   6.285 -13.411  1.00  0.00     0.000 C 
BRANCH  12  13
HETATM   13  C   UNL     1      31.341   5.132 -12.484  1.00  0.00     0.000 C 
BRANCH  13  14
HETATM   14  C   UNL     1      30.416   5.622 -11.363  1.00  0.00     0.000 C 
BRANCH  14  15
HETATM   15  C   UNL     1      30.549   7.136 -11.161  1.00  0.00     0.000 C 
BRANCH  15  16
HETATM   16  C   UNL     1      31.054   7.461  -9.751  1.00  0.00     0.000 C 
BRANCH  16  17
HETATM   17  C   UNL     1      32.436   8.123  -9.801  1.00  0.00    -0.000 C 
BRANCH  17  18
HETATM   18  C   UNL     1      33.540   7.079  -9.998  1.00  0.00    -0.005 C 
HETATM   19  C   UNL     1      34.464   7.464 -11.151  1.00  0.00     0.005 C 
ENDBRANCH  17  18
ENDBRANCH  16  17
ENDBRANCH  15  16
ENDBRANCH  14  15
ENDBRANCH  13  14
ENDBRANCH  12  13
ENDBRANCH  11  12
ENDBRANCH  10  11
ENDBRANCH   9  10
ENDBRANCH   8   9
ENDBRANCH   7   8
ENDBRANCH   6   7
ENDBRANCH   5   6
ENDBRANCH   3   5
ENDBRANCH   1   3
TORSDOF 15
ENDMDL
MODEL 20
REMARK VINA RESULT:      -3.4      4.693      7.635
REMARK  15 active torsions:
REMARK  status: ('A' for Active; 'I' for Inactive)
REMARK    1  A    between atoms: O_1  and  C_18 
REMARK    2  A    between atoms: C_3  and  C_4 
REMARK    3  A    between atoms: C_3  and  C_5 
REMARK    4  A    between atoms: C_4  and  C_6 
REMARK    5  A    between atoms: C_5  and  C_7 
REMARK    6  A    between atoms: C_6  and  C_8 
REMARK    7  A    between atoms: C_7  and  C_9 
REMARK    8  A    between atoms: C_8  and  C_10 
REMARK    9  A    between atoms: C_9  and  C_11 
REMARK   10  A    between atoms: C_10  and  C_12 
REMARK   11  A    between atoms: C_11  and  C_13 
REMARK   12  A    between atoms: C_12  and  C_14 
REMARK   13  A    between atoms: C_13  and  C_15 
REMARK   14  A    between atoms: C_14  and  C_16 
REMARK   15  A    between atoms: C_16  and  C_18 
ROOT
HETATM    1  O   UNL     1      31.757   9.537 -14.156  1.00  0.00    -0.776 OA
HETATM    2  H   UNL     1      32.355   8.892 -13.753  1.00  0.00     0.167 HD
ENDROOT
BRANCH   1   3
HETATM    3  C   UNL     1      30.517   9.191 -14.562  1.00  0.00     0.139 C 
HETATM    4  O   UNL     1      29.541   9.626 -13.969  1.00  0.00    -0.650 OA
BRANCH   3   5
HETATM    5  C   UNL     1      30.367   8.271 -15.746  1.00  0.00     0.110 C 
BRANCH   5   6
HETATM    6  C   UNL     1      31.604   7.393 -15.989  1.00  0.00     0.010 C 
BRANCH   6   7
HETATM    7  C   UNL     1      31.389   5.977 -15.444  1.00  0.00     0.001 C 
BRANCH   7   8
HETATM    8  C   UNL     1      31.959   4.926 -16.404  1.00  0.00     0.000 C 
BRANCH   8   9
HETATM    9  C   UNL     1      32.782   5.586 -17.518  1.00  0.00     0.000 C 
BRANCH   9  10
HETATM   10  C   UNL     1      32.285   5.149 -18.901  1.00  0.00     0.000 C 
BRANCH  10  11
HETATM   11  C   UNL     1      32.828   6.074 -19.997  1.00  0.00     0.000 C 
BRANCH  11  12
HETATM   12  C   UNL     1      33.337   7.392 -19.404  1.00  0.00     0.000 C 
BRANCH  12  13
HETATM   13  C   UNL     1      32.594   8.590 -20.006  1.00  0.00     0.000 C 
BRANCH  13  14
HETATM   14  C   UNL     1      31.079   8.356 -20.002  1.00  0.00     0.000 C 
BRANCH  14  15
HETATM   15  C   UNL     1      30.363   9.401 -19.137  1.00  0.00     0.000 C 
BRANCH  15  16
HETATM   16  C   UNL     1      31.153  10.713 -19.092  1.00  0.00     0.000 C 
BRANCH  16  17
HETATM   17  C   UNL     1      31.029  11.384 -17.719  1.00  0.00    -0.000 C 
BRANCH  17  18
HETATM   18  C   UNL     1      29.559  11.627 -17.357  1.00  0.00    -0.005 C 
HETATM   19  C   UNL     1      29.427  12.709 -16.288  1.00  0.00     0.005 C 
ENDBRANCH  17  18
ENDBRANCH  16  17
ENDBRANCH  15  16
ENDBRANCH  14  15
ENDBRANCH  13  14
ENDBRANCH  12  13
ENDBRANCH  11  12
ENDBRANCH  10  11
ENDBRANCH   9  10
ENDBRANCH   8   9
ENDBRANCH   7   8
ENDBRANCH   6   7
ENDBRANCH   5   6
ENDBRANCH   3   5
ENDBRANCH   1   3
TORSDOF 15
ENDMDL
