MODEL 1
REMARK VINA RESULT:      -4.9      0.000      0.000
REMARK  13 active torsions:
REMARK  status: ('A' for Active; 'I' for Inactive)
REMARK    1  A    between atoms: O_1  and  C_16 
REMARK    2  A    between atoms: C_3  and  C_4 
REMARK    3  A    between atoms: C_3  and  C_5 
REMARK    4  A    between atoms: C_4  and  C_6 
REMARK    5  A    between atoms: C_5  and  C_7 
REMARK    6  A    between atoms: C_6  and  C_8 
REMARK    7  A    between atoms: C_7  and  C_9 
REMARK    8  A    between atoms: C_8  and  C_10 
REMARK    9  A    between atoms: C_9  and  C_11 
REMARK   10  A    between atoms: C_10  and  C_12 
REMARK   11  A    between atoms: C_11  and  C_13 
REMARK   12  A    between atoms: C_12  and  C_14 
REMARK   13  A    between atoms: C_14  and  C_16 
ROOT
HETATM    1  O   UNL     1      45.934  -5.969  -7.707  1.00  0.00    -0.776 OA
HETATM    2  H   UNL     1      46.357  -6.192  -6.866  1.00  0.00     0.167 HD
ENDROOT
BRANCH   1   3
HETATM    3  C   UNL     1      46.630  -5.944  -8.863  1.00  0.00     0.139 C 
HETATM    4  O   UNL     1      46.361  -5.109  -9.715  1.00  0.00    -0.650 OA
BRANCH   3   5
HETATM    5  C   UNL     1      47.730  -6.951  -9.075  1.00  0.00     0.110 C 
BRANCH   5   6
HETATM    6  C   UNL     1      48.515  -6.722 -10.375  1.00  0.00     0.010 C 
BRANCH   6   7
HETATM    7  C   UNL     1      47.995  -7.626 -11.499  1.00  0.00     0.001 C 
BRANCH   7   8
HETATM    8  C   UNL     1      48.172  -6.959 -12.868  1.00  0.00     0.000 C 
BRANCH   8   9
HETATM    9  C   UNL     1      47.366  -5.658 -12.955  1.00  0.00     0.000 C 
BRANCH   9  10
HETATM   10  C   UNL     1      46.391  -5.692 -14.138  1.00  0.00     0.000 C 
BRANCH  10  11
HETATM   11  C   UNL     1      47.064  -5.192 -15.421  1.00  0.00     0.000 C 
BRANCH  11  12
HETATM   12  C   UNL     1      47.562  -6.365 -16.275  1.00  0.00     0.000 C 
BRANCH  12  13
HETATM   13  C   UNL     1      48.028  -5.884 -17.653  1.00  0.00     0.000 C 
BRANCH  13  14
HETATM   14  C   UNL     1      47.357  -6.688 -18.773  1.00  0.00     0.000 C 
BRANCH  14  15
HETATM   15  C   UNL     1      47.979  -6.360 -20.135  1.00  0.00    -0.000 C 
BRANCH  15  16
HETATM   16  C   UNL     1      47.189  -5.257 -20.848  1.00  0.00    -0.005 C 
HETATM   17  C   UNL     1      47.110  -5.518 -22.351  1.00  0.00     0.005 C 
ENDBRANCH  15  16
ENDBRANCH  14  15
ENDBRANCH  13  14
ENDBRANCH  12  13
ENDBRANCH  11  12
ENDBRANCH  10  11
ENDBRANCH   9  10
ENDBRANCH   8   9
ENDBRANCH   7   8
ENDBRANCH   6   7
ENDBRANCH   5   6
ENDBRANCH   3   5
ENDBRANCH   1   3
TORSDOF 13
ENDMDL
MODEL 2
REMARK VINA RESULT:      -4.8     19.097     21.405
REMARK  13 active torsions:
REMARK  status: ('A' for Active; 'I' for Inactive)
REMARK    1  A    between atoms: O_1  and  C_16 
REMARK    2  A    between atoms: C_3  and  C_4 
REMARK    3  A    between atoms: C_3  and  C_5 
REMARK    4  A    between atoms: C_4  and  C_6 
REMARK    5  A    between atoms: C_5  and  C_7 
REMARK    6  A    between atoms: C_6  and  C_8 
REMARK    7  A    between atoms: C_7  and  C_9 
REMARK    8  A    between atoms: C_8  and  C_10 
REMARK    9  A    between atoms: C_9  and  C_11 
REMARK   10  A    between atoms: C_10  and  C_12 
REMARK   11  A    between atoms: C_11  and  C_13 
REMARK   12  A    between atoms: C_12  and  C_14 
REMARK   13  A    between atoms: C_14  and  C_16 
ROOT
HETATM    1  O   UNL     1      32.334   4.783 -15.261  1.00  0.00    -0.776 OA
HETATM    2  H   UNL     1      32.384   3.856 -15.536  1.00  0.00     0.167 HD
ENDROOT
BRANCH   1   3
HETATM    3  C   UNL     1      31.192   5.492 -15.379  1.00  0.00     0.139 C 
HETATM    4  O   UNL     1      30.239   5.013 -15.977  1.00  0.00    -0.650 OA
BRANCH   3   5
HETATM    5  C   UNL     1      31.119   6.866 -14.764  1.00  0.00     0.110 C 
BRANCH   5   6
HETATM    6  C   UNL     1      31.561   6.893 -13.294  1.00  0.00     0.010 C 
BRANCH   6   7
HETATM    7  C   UNL     1      30.554   6.157 -12.402  1.00  0.00     0.001 C 
BRANCH   7   8
HETATM    8  C   UNL     1      31.231   5.017 -11.633  1.00  0.00     0.000 C 
BRANCH   8   9
HETATM    9  C   UNL     1      32.753   5.059 -11.811  1.00  0.00     0.000 C 
BRANCH   9  10
HETATM   10  C   UNL     1      33.453   5.392 -10.488  1.00  0.00     0.000 C 
BRANCH  10  11
HETATM   11  C   UNL     1      34.004   6.823 -10.502  1.00  0.00     0.000 C 
BRANCH  11  12
HETATM   12  C   UNL     1      33.491   7.622  -9.298  1.00  0.00     0.000 C 
BRANCH  12  13
HETATM   13  C   UNL     1      32.011   7.983  -9.467  1.00  0.00     0.000 C 
BRANCH  13  14
HETATM   14  C   UNL     1      31.165   7.378  -8.341  1.00  0.00     0.000 C 
BRANCH  14  15
HETATM   15  C   UNL     1      32.048   6.665  -7.310  1.00  0.00    -0.000 C 
BRANCH  15  16
HETATM   16  C   UNL     1      31.654   5.190  -7.175  1.00  0.00    -0.005 C 
HETATM   17  C   UNL     1      30.138   5.017  -7.236  1.00  0.00     0.005 C 
ENDBRANCH  15  16
ENDBRANCH  14  15
ENDBRANCH  13  14
ENDBRANCH  12  13
ENDBRANCH  11  12
ENDBRANCH  10  11
ENDBRANCH   9  10
ENDBRANCH   8   9
ENDBRANCH   7   8
ENDBRANCH   6   7
ENDBRANCH   5   6
ENDBRANCH   3   5
ENDBRANCH   1   3
TORSDOF 13
ENDMDL
MODEL 3
REMARK VINA RESULT:      -4.6     19.269     21.200
REMARK  13 active torsions:
REMARK  status: ('A' for Active; 'I' for Inactive)
REMARK    1  A    between atoms: O_1  and  C_16 
REMARK    2  A    between atoms: C_3  and  C_4 
REMARK    3  A    between atoms: C_3  and  C_5 
REMARK    4  A    between atoms: C_4  and  C_6 
REMARK    5  A    between atoms: C_5  and  C_7 
REMARK    6  A    between atoms: C_6  and  C_8 
REMARK    7  A    between atoms: C_7  and  C_9 
REMARK    8  A    between atoms: C_8  and  C_10 
REMARK    9  A    between atoms: C_9  and  C_11 
REMARK   10  A    between atoms: C_10  and  C_12 
REMARK   11  A    between atoms: C_11  and  C_13 
REMARK   12  A    between atoms: C_12  and  C_14 
REMARK   13  A    between atoms: C_14  and  C_16 
ROOT
HETATM    1  O   UNL     1      30.453   7.775 -17.168  1.00  0.00    -0.776 OA
HETATM    2  H   UNL     1      31.080   8.142 -16.527  1.00  0.00     0.167 HD
ENDROOT
BRANCH   1   3
HETATM    3  C   UNL     1      30.868   7.036 -18.217  1.00  0.00     0.139 C 
HETATM    4  O   UNL     1      31.082   7.576 -19.293  1.00  0.00    -0.650 OA
BRANCH   3   5
HETATM    5  C   UNL     1      31.059   5.552 -18.035  1.00  0.00     0.110 C 
BRANCH   5   6
HETATM    6  C   UNL     1      32.504   5.169 -17.679  1.00  0.00     0.010 C 
BRANCH   6   7
HETATM    7  C   UNL     1      32.631   4.826 -16.190  1.00  0.00     0.001 C 
BRANCH   7   8
HETATM    8  C   UNL     1      33.781   5.605 -15.541  1.00  0.00     0.000 C 
BRANCH   8   9
HETATM    9  C   UNL     1      33.912   7.005 -16.153  1.00  0.00     0.000 C 
BRANCH   9  10
HETATM   10  C   UNL     1      33.397   8.078 -15.187  1.00  0.00     0.000 C 
BRANCH  10  11
HETATM   11  C   UNL     1      33.505   7.607 -13.732  1.00  0.00     0.000 C 
BRANCH  11  12
HETATM   12  C   UNL     1      32.194   7.853 -12.975  1.00  0.00     0.000 C 
BRANCH  12  13
HETATM   13  C   UNL     1      31.086   6.919 -13.475  1.00  0.00     0.000 C 
BRANCH  13  14
HETATM   14  C   UNL     1      31.215   5.526 -12.847  1.00  0.00     0.000 C 
BRANCH  14  15
HETATM   15  C   UNL     1      30.342   5.404 -11.593  1.00  0.00    -0.000 C 
BRANCH  15  16
HETATM   16  C   UNL     1      31.039   6.023 -10.376  1.00  0.00    -0.005 C 
HETATM   17  C   UNL     1      32.313   5.259 -10.022  1.00  0.00     0.005 C 
ENDBRANCH  15  16
ENDBRANCH  14  15
ENDBRANCH  13  14
ENDBRANCH  12  13
ENDBRANCH  11  12
ENDBRANCH  10  11
ENDBRANCH   9  10
ENDBRANCH   8   9
ENDBRANCH   7   8
ENDBRANCH   6   7
ENDBRANCH   5   6
ENDBRANCH   3   5
ENDBRANCH   1   3
TORSDOF 13
ENDMDL
MODEL 4
REMARK VINA RESULT:      -4.6     18.881     21.492
REMARK  13 active torsions:
REMARK  status: ('A' for Active; 'I' for Inactive)
REMARK    1  A    between atoms: O_1  and  C_16 
REMARK    2  A    between atoms: C_3  and  C_4 
REMARK    3  A    between atoms: C_3  and  C_5 
REMARK    4  A    between atoms: C_4  and  C_6 
REMARK    5  A    between atoms: C_5  and  C_7 
REMARK    6  A    between atoms: C_6  and  C_8 
REMARK    7  A    between atoms: C_7  and  C_9 
REMARK    8  A    between atoms: C_8  and  C_10 
REMARK    9  A    between atoms: C_9  and  C_11 
REMARK   10  A    between atoms: C_10  and  C_12 
REMARK   11  A    between atoms: C_11  and  C_13 
REMARK   12  A    between atoms: C_12  and  C_14 
REMARK   13  A    between atoms: C_14  and  C_16 
ROOT
HETATM    1  O   UNL     1      32.754   3.904 -16.411  1.00  0.00    -0.776 OA
HETATM    2  H   UNL     1      32.022   3.504 -15.920  1.00  0.00     0.167 HD
ENDROOT
BRANCH   1   3
HETATM    3  C   UNL     1      32.658   5.144 -16.933  1.00  0.00     0.139 C 
HETATM    4  O   UNL     1      33.077   5.361 -18.062  1.00  0.00    -0.650 OA
BRANCH   3   5
HETATM    5  C   UNL     1      32.033   6.239 -16.107  1.00  0.00     0.110 C 
BRANCH   5   6
HETATM    6  C   UNL     1      31.400   5.725 -14.806  1.00  0.00     0.010 C 
BRANCH   6   7
HETATM    7  C   UNL     1      31.150   6.876 -13.824  1.00  0.00     0.001 C 
BRANCH   7   8
HETATM    8  C   UNL     1      32.434   7.248 -13.074  1.00  0.00     0.000 C 
BRANCH   8   9
HETATM    9  C   UNL     1      32.947   6.068 -12.240  1.00  0.00     0.000 C 
BRANCH   9  10
HETATM   10  C   UNL     1      32.640   6.271 -10.752  1.00  0.00     0.000 C 
BRANCH  10  11
HETATM   11  C   UNL     1      31.178   5.930 -10.440  1.00  0.00     0.000 C 
BRANCH  11  12
HETATM   12  C   UNL     1      31.049   5.265  -9.064  1.00  0.00     0.000 C 
BRANCH  12  13
HETATM   13  C   UNL     1      32.396   5.249  -8.332  1.00  0.00     0.000 C 
BRANCH  13  14
HETATM   14  C   UNL     1      32.229   4.779  -6.883  1.00  0.00     0.000 C 
BRANCH  14  15
HETATM   15  C   UNL     1      30.941   5.337  -6.267  1.00  0.00    -0.000 C 
BRANCH  15  16
HETATM   16  C   UNL     1      31.058   5.434  -4.742  1.00  0.00    -0.005 C 
HETATM   17  C   UNL     1      32.518   5.385  -4.297  1.00  0.00     0.005 C 
ENDBRANCH  15  16
ENDBRANCH  14  15
ENDBRANCH  13  14
ENDBRANCH  12  13
ENDBRANCH  11  12
ENDBRANCH  10  11
ENDBRANCH   9  10
ENDBRANCH   8   9
ENDBRANCH   7   8
ENDBRANCH   6   7
ENDBRANCH   5   6
ENDBRANCH   3   5
ENDBRANCH   1   3
TORSDOF 13
ENDMDL
MODEL 5
REMARK VINA RESULT:      -4.6     20.987     22.651
REMARK  13 active torsions:
REMARK  status: ('A' for Active; 'I' for Inactive)
REMARK    1  A    between atoms: O_1  and  C_16 
REMARK    2  A    between atoms: C_3  and  C_4 
REMARK    3  A    between atoms: C_3  and  C_5 
REMARK    4  A    between atoms: C_4  and  C_6 
REMARK    5  A    between atoms: C_5  and  C_7 
REMARK    6  A    between atoms: C_6  and  C_8 
REMARK    7  A    between atoms: C_7  and  C_9 
REMARK    8  A    between atoms: C_8  and  C_10 
REMARK    9  A    between atoms: C_9  and  C_11 
REMARK   10  A    between atoms: C_10  and  C_12 
REMARK   11  A    between atoms: C_11  and  C_13 
REMARK   12  A    between atoms: C_12  and  C_14 
REMARK   13  A    between atoms: C_14  and  C_16 
ROOT
HETATM    1  O   UNL     1      27.922  10.433 -19.285  1.00  0.00    -0.776 OA
HETATM    2  H   UNL     1      27.403   9.795 -18.774  1.00  0.00     0.167 HD
ENDROOT
BRANCH   1   3
HETATM    3  C   UNL     1      29.234  10.631 -19.041  1.00  0.00     0.139 C 
HETATM    4  O   UNL     1      29.612  11.701 -18.583  1.00  0.00    -0.650 OA
BRANCH   3   5
HETATM    5  C   UNL     1      30.209   9.521 -19.340  1.00  0.00     0.110 C 
BRANCH   5   6
HETATM    6  C   UNL     1      30.691   9.519 -20.798  1.00  0.00     0.010 C 
BRANCH   6   7
HETATM    7  C   UNL     1      32.100  10.112 -20.912  1.00  0.00     0.001 C 
BRANCH   7   8
HETATM    8  C   UNL     1      33.103   9.314 -20.070  1.00  0.00     0.000 C 
BRANCH   8   9
HETATM    9  C   UNL     1      34.088   8.551 -20.964  1.00  0.00     0.000 C 
BRANCH   9  10
HETATM   10  C   UNL     1      34.122   7.062 -20.600  1.00  0.00     0.000 C 
BRANCH  10  11
HETATM   11  C   UNL     1      33.224   6.770 -19.392  1.00  0.00     0.000 C 
BRANCH  11  12
HETATM   12  C   UNL     1      32.666   5.343 -19.453  1.00  0.00     0.000 C 
BRANCH  12  13
HETATM   13  C   UNL     1      31.133   5.352 -19.483  1.00  0.00     0.000 C 
BRANCH  13  14
HETATM   14  C   UNL     1      30.611   6.100 -20.716  1.00  0.00     0.000 C 
BRANCH  14  15
HETATM   15  C   UNL     1      30.410   5.143 -21.896  1.00  0.00    -0.000 C 
BRANCH  15  16
HETATM   16  C   UNL     1      31.451   5.395 -22.992  1.00  0.00    -0.005 C 
HETATM   17  C   UNL     1      31.564   6.883 -23.313  1.00  0.00     0.005 C 
ENDBRANCH  15  16
ENDBRANCH  14  15
ENDBRANCH  13  14
ENDBRANCH  12  13
ENDBRANCH  11  12
ENDBRANCH  10  11
ENDBRANCH   9  10
ENDBRANCH   8   9
ENDBRANCH   7   8
ENDBRANCH   6   7
ENDBRANCH   5   6
ENDBRANCH   3   5
ENDBRANCH   1   3
TORSDOF 13
ENDMDL
MODEL 6
REMARK VINA RESULT:      -4.5     20.956     22.414
REMARK  13 active torsions:
REMARK  status: ('A' for Active; 'I' for Inactive)
REMARK    1  A    between atoms: O_1  and  C_16 
REMARK    2  A    between atoms: C_3  and  C_4 
REMARK    3  A    between atoms: C_3  and  C_5 
REMARK    4  A    between atoms: C_4  and  C_6 
REMARK    5  A    between atoms: C_5  and  C_7 
REMARK    6  A    between atoms: C_6  and  C_8 
REMARK    7  A    between atoms: C_7  and  C_9 
REMARK    8  A    between atoms: C_8  and  C_10 
REMARK    9  A    between atoms: C_9  and  C_11 
REMARK   10  A    between atoms: C_10  and  C_12 
REMARK   11  A    between atoms: C_11  and  C_13 
REMARK   12  A    between atoms: C_12  and  C_14 
REMARK   13  A    between atoms: C_14  and  C_16 
ROOT
HETATM    1  O   UNL     1      27.893  10.633 -19.408  1.00  0.00    -0.776 OA
HETATM    2  H   UNL     1      27.228  10.061 -19.000  1.00  0.00     0.167 HD
ENDROOT
BRANCH   1   3
HETATM    3  C   UNL     1      29.185  10.600 -19.020  1.00  0.00     0.139 C 
HETATM    4  O   UNL     1      29.664  11.555 -18.425  1.00  0.00    -0.650 OA
BRANCH   3   5
HETATM    5  C   UNL     1      30.011   9.379 -19.332  1.00  0.00     0.110 C 
BRANCH   5   6
HETATM    6  C   UNL     1      31.313   9.309 -18.521  1.00  0.00     0.010 C 
BRANCH   6   7
HETATM    7  C   UNL     1      31.148   8.406 -17.293  1.00  0.00     0.001 C 
BRANCH   7   8
HETATM    8  C   UNL     1      30.950   6.943 -17.706  1.00  0.00     0.000 C 
BRANCH   8   9
HETATM    9  C   UNL     1      32.268   6.165 -17.626  1.00  0.00     0.000 C 
BRANCH   9  10
HETATM   10  C   UNL     1      32.476   5.302 -18.876  1.00  0.00     0.000 C 
BRANCH  10  11
HETATM   11  C   UNL     1      31.269   5.397 -19.817  1.00  0.00     0.000 C 
BRANCH  11  12
HETATM   12  C   UNL     1      31.628   4.908 -21.225  1.00  0.00     0.000 C 
BRANCH  12  13
HETATM   13  C   UNL     1      30.932   5.755 -22.296  1.00  0.00     0.000 C 
BRANCH  13  14
HETATM   14  C   UNL     1      31.127   7.252 -22.028  1.00  0.00     0.000 C 
BRANCH  14  15
HETATM   15  C   UNL     1      32.480   7.736 -22.562  1.00  0.00    -0.000 C 
BRANCH  15  16
HETATM   16  C   UNL     1      33.266   8.478 -21.475  1.00  0.00    -0.005 C 
HETATM   17  C   UNL     1      34.437   7.639 -20.971  1.00  0.00     0.005 C 
ENDBRANCH  15  16
ENDBRANCH  14  15
ENDBRANCH  13  14
ENDBRANCH  12  13
ENDBRANCH  11  12
ENDBRANCH  10  11
ENDBRANCH   9  10
ENDBRANCH   8   9
ENDBRANCH   7   8
ENDBRANCH   6   7
ENDBRANCH   5   6
ENDBRANCH   3   5
ENDBRANCH   1   3
TORSDOF 13
ENDMDL
MODEL 7
REMARK VINA RESULT:      -4.4     63.423     64.643
REMARK  13 active torsions:
REMARK  status: ('A' for Active; 'I' for Inactive)
REMARK    1  A    between atoms: O_1  and  C_16 
REMARK    2  A    between atoms: C_3  and  C_4 
REMARK    3  A    between atoms: C_3  and  C_5 
REMARK    4  A    between atoms: C_4  and  C_6 
REMARK    5  A    between atoms: C_5  and  C_7 
REMARK    6  A    between atoms: C_6  and  C_8 
REMARK    7  A    between atoms: C_7  and  C_9 
REMARK    8  A    between atoms: C_8  and  C_10 
REMARK    9  A    between atoms: C_9  and  C_11 
REMARK   10  A    between atoms: C_10  and  C_12 
REMARK   11  A    between atoms: C_11  and  C_13 
REMARK   12  A    between atoms: C_12  and  C_14 
REMARK   13  A    between atoms: C_14  and  C_16 
ROOT
HETATM    1  O   UNL     1     -12.986   9.027  -8.598  1.00  0.00    -0.776 OA
HETATM    2  H   UNL     1     -13.614   8.850  -7.883  1.00  0.00     0.167 HD
ENDROOT
BRANCH   1   3
HETATM    3  C   UNL     1     -12.722  10.284  -9.012  1.00  0.00     0.139 C 
HETATM    4  O   UNL     1     -12.034  11.019  -8.318  1.00  0.00    -0.650 OA
BRANCH   3   5
HETATM    5  C   UNL     1     -13.287  10.754 -10.327  1.00  0.00     0.110 C 
BRANCH   5   6
HETATM    6  C   UNL     1     -14.058   9.658 -11.078  1.00  0.00     0.010 C 
BRANCH   6   7
HETATM    7  C   UNL     1     -13.548   9.513 -12.517  1.00  0.00     0.001 C 
BRANCH   7   8
HETATM    8  C   UNL     1     -12.903  10.816 -13.006  1.00  0.00     0.000 C 
BRANCH   8   9
HETATM    9  C   UNL     1     -12.682  10.785 -14.523  1.00  0.00     0.000 C 
BRANCH   9  10
HETATM   10  C   UNL     1     -13.666  11.715 -15.242  1.00  0.00     0.000 C 
BRANCH  10  11
HETATM   11  C   UNL     1     -15.001  11.009 -15.503  1.00  0.00     0.000 C 
BRANCH  11  12
HETATM   12  C   UNL     1     -16.171  11.810 -14.920  1.00  0.00     0.000 C 
BRANCH  12  13
HETATM   13  C   UNL     1     -16.823  11.063 -13.751  1.00  0.00     0.000 C 
BRANCH  13  14
HETATM   14  C   UNL     1     -18.069  11.804 -13.250  1.00  0.00     0.000 C 
BRANCH  14  15
HETATM   15  C   UNL     1     -18.286  11.565 -11.751  1.00  0.00    -0.000 C 
BRANCH  15  16
HETATM   16  C   UNL     1     -16.965  11.675 -10.981  1.00  0.00    -0.005 C 
HETATM   17  C   UNL     1     -17.203  12.124  -9.541  1.00  0.00     0.005 C 
ENDBRANCH  15  16
ENDBRANCH  14  15
ENDBRANCH  13  14
ENDBRANCH  12  13
ENDBRANCH  11  12
ENDBRANCH  10  11
ENDBRANCH   9  10
ENDBRANCH   8   9
ENDBRANCH   7   8
ENDBRANCH   6   7
ENDBRANCH   5   6
ENDBRANCH   3   5
ENDBRANCH   1   3
TORSDOF 13
ENDMDL
MODEL 8
REMARK VINA RESULT:      -4.4     20.824     22.519
REMARK  13 active torsions:
REMARK  status: ('A' for Active; 'I' for Inactive)
REMARK    1  A    between atoms: O_1  and  C_16 
REMARK    2  A    between atoms: C_3  and  C_4 
REMARK    3  A    between atoms: C_3  and  C_5 
REMARK    4  A    between atoms: C_4  and  C_6 
REMARK    5  A    between atoms: C_5  and  C_7 
REMARK    6  A    between atoms: C_6  and  C_8 
REMARK    7  A    between atoms: C_7  and  C_9 
REMARK    8  A    between atoms: C_8  and  C_10 
REMARK    9  A    between atoms: C_9  and  C_11 
REMARK   10  A    between atoms: C_10  and  C_12 
REMARK   11  A    between atoms: C_11  and  C_13 
REMARK   12  A    between atoms: C_12  and  C_14 
REMARK   13  A    between atoms: C_14  and  C_16 
ROOT
HETATM    1  O   UNL     1      28.968  11.447 -17.660  1.00  0.00    -0.776 OA
HETATM    2  H   UNL     1      28.219  11.894 -17.241  1.00  0.00     0.167 HD
ENDROOT
BRANCH   1   3
HETATM    3  C   UNL     1      28.920  11.048 -18.948  1.00  0.00     0.139 C 
HETATM    4  O   UNL     1      27.942  10.439 -19.358  1.00  0.00    -0.650 OA
BRANCH   3   5
HETATM    5  C   UNL     1      30.081  11.363 -19.855  1.00  0.00     0.110 C 
BRANCH   5   6
HETATM    6  C   UNL     1      31.418  10.809 -19.339  1.00  0.00     0.010 C 
BRANCH   6   7
HETATM    7  C   UNL     1      31.457   9.280 -19.445  1.00  0.00     0.001 C 
BRANCH   7   8
HETATM    8  C   UNL     1      32.726   8.716 -18.795  1.00  0.00     0.000 C 
BRANCH   8   9
HETATM    9  C   UNL     1      32.863   7.214 -19.070  1.00  0.00     0.000 C 
BRANCH   9  10
HETATM   10  C   UNL     1      31.556   6.632 -19.621  1.00  0.00     0.000 C 
BRANCH  10  11
HETATM   11  C   UNL     1      31.145   5.373 -18.849  1.00  0.00     0.000 C 
BRANCH  11  12
HETATM   12  C   UNL     1      31.185   5.617 -17.335  1.00  0.00     0.000 C 
BRANCH  12  13
HETATM   13  C   UNL     1      32.180   4.673 -16.651  1.00  0.00     0.000 C 
BRANCH  13  14
HETATM   14  C   UNL     1      32.683   5.266 -15.330  1.00  0.00     0.000 C 
BRANCH  14  15
HETATM   15  C   UNL     1      34.010   6.007 -15.528  1.00  0.00    -0.000 C 
BRANCH  15  16
HETATM   16  C   UNL     1      33.849   7.507 -15.256  1.00  0.00    -0.005 C 
HETATM   17  C   UNL     1      34.989   8.306 -15.881  1.00  0.00     0.005 C 
ENDBRANCH  15  16
ENDBRANCH  14  15
ENDBRANCH  13  14
ENDBRANCH  12  13
ENDBRANCH  11  12
ENDBRANCH  10  11
ENDBRANCH   9  10
ENDBRANCH   8   9
ENDBRANCH   7   8
ENDBRANCH   6   7
ENDBRANCH   5   6
ENDBRANCH   3   5
ENDBRANCH   1   3
TORSDOF 13
ENDMDL
MODEL 9
REMARK VINA RESULT:      -4.3     18.777     19.780
REMARK  13 active torsions:
REMARK  status: ('A' for Active; 'I' for Inactive)
REMARK    1  A    between atoms: O_1  and  C_16 
REMARK    2  A    between atoms: C_3  and  C_4 
REMARK    3  A    between atoms: C_3  and  C_5 
REMARK    4  A    between atoms: C_4  and  C_6 
REMARK    5  A    between atoms: C_5  and  C_7 
REMARK    6  A    between atoms: C_6  and  C_8 
REMARK    7  A    between atoms: C_7  and  C_9 
REMARK    8  A    between atoms: C_8  and  C_10 
REMARK    9  A    between atoms: C_9  and  C_11 
REMARK   10  A    between atoms: C_10  and  C_12 
REMARK   11  A    between atoms: C_11  and  C_13 
REMARK   12  A    between atoms: C_12  and  C_14 
REMARK   13  A    between atoms: C_14  and  C_16 
ROOT
HETATM    1  O   UNL     1      33.044   4.109 -11.477  1.00  0.00    -0.776 OA
HETATM    2  H   UNL     1      32.192   3.722 -11.726  1.00  0.00     0.167 HD
ENDROOT
BRANCH   1   3
HETATM    3  C   UNL     1      33.129   5.090 -10.554  1.00  0.00     0.139 C 
HETATM    4  O   UNL     1      32.369   5.090  -9.596  1.00  0.00    -0.650 OA
BRANCH   3   5
HETATM    5  C   UNL     1      34.168   6.168 -10.728  1.00  0.00     0.110 C 
BRANCH   5   6
HETATM    6  C   UNL     1      33.685   7.550 -10.264  1.00  0.00     0.010 C 
BRANCH   6   7
HETATM    7  C   UNL     1      34.660   8.649 -10.702  1.00  0.00     0.001 C 
BRANCH   7   8
HETATM    8  C   UNL     1      34.091   9.453 -11.878  1.00  0.00     0.000 C 
BRANCH   8   9
HETATM    9  C   UNL     1      34.205   8.667 -13.189  1.00  0.00     0.000 C 
BRANCH   9  10
HETATM   10  C   UNL     1      32.925   8.800 -14.023  1.00  0.00     0.000 C 
BRANCH  10  11
HETATM   11  C   UNL     1      32.640   7.511 -14.802  1.00  0.00     0.000 C 
BRANCH  11  12
HETATM   12  C   UNL     1      32.126   6.407 -13.871  1.00  0.00     0.000 C 
BRANCH  12  13
HETATM   13  C   UNL     1      31.087   5.529 -14.578  1.00  0.00     0.000 C 
BRANCH  13  14
HETATM   14  C   UNL     1      30.721   6.106 -15.951  1.00  0.00     0.000 C 
BRANCH  14  15
HETATM   15  C   UNL     1      31.129   5.149 -17.076  1.00  0.00    -0.000 C 
BRANCH  15  16
HETATM   16  C   UNL     1      31.073   5.849 -18.439  1.00  0.00    -0.005 C 
HETATM   17  C   UNL     1      31.045   7.367 -18.279  1.00  0.00     0.005 C 
ENDBRANCH  15  16
ENDBRANCH  14  15
ENDBRANCH  13  14
ENDBRANCH  12  13
ENDBRANCH  11  12
ENDBRANCH  10  11
ENDBRANCH   9  10
ENDBRANCH   8   9
ENDBRANCH   7   8
ENDBRANCH   6   7
ENDBRANCH   5   6
ENDBRANCH   3   5
ENDBRANCH   1   3
TORSDOF 13
ENDMDL
MODEL 10
REMARK VINA RESULT:      -4.3     18.821     19.697
REMARK  13 active torsions:
REMARK  status: ('A' for Active; 'I' for Inactive)
REMARK    1  A    between atoms: O_1  and  C_16 
REMARK    2  A    between atoms: C_3  and  C_4 
REMARK    3  A    between atoms: C_3  and  C_5 
REMARK    4  A    between atoms: C_4  and  C_6 
REMARK    5  A    between atoms: C_5  and  C_7 
REMARK    6  A    between atoms: C_6  and  C_8 
REMARK    7  A    between atoms: C_7  and  C_9 
REMARK    8  A    between atoms: C_8  and  C_10 
REMARK    9  A    between atoms: C_9  and  C_11 
REMARK   10  A    between atoms: C_10  and  C_12 
REMARK   11  A    between atoms: C_11  and  C_13 
REMARK   12  A    between atoms: C_12  and  C_14 
REMARK   13  A    between atoms: C_14  and  C_16 
ROOT
HETATM    1  O   UNL     1      30.953   4.872  -7.494  1.00  0.00    -0.776 OA
HETATM    2  H   UNL     1      29.989   4.828  -7.421  1.00  0.00     0.167 HD
ENDROOT
BRANCH   1   3
HETATM    3  C   UNL     1      31.554   5.447  -8.556  1.00  0.00     0.139 C 
HETATM    4  O   UNL     1      32.620   5.005  -8.962  1.00  0.00    -0.650 OA
BRANCH   3   5
HETATM    5  C   UNL     1      30.894   6.627  -9.220  1.00  0.00     0.110 C 
BRANCH   5   6
HETATM    6  C   UNL     1      31.714   7.200 -10.386  1.00  0.00     0.010 C 
BRANCH   6   7
HETATM    7  C   UNL     1      31.312   6.548 -11.714  1.00  0.00     0.001 C 
BRANCH   7   8
HETATM    8  C   UNL     1      32.495   6.508 -12.688  1.00  0.00     0.000 C 
BRANCH   8   9
HETATM    9  C   UNL     1      32.410   5.283 -13.606  1.00  0.00     0.000 C 
BRANCH   9  10
HETATM   10  C   UNL     1      31.179   5.361 -14.516  1.00  0.00     0.000 C 
BRANCH  10  11
HETATM   11  C   UNL     1      31.240   6.596 -15.422  1.00  0.00     0.000 C 
BRANCH  11  12
HETATM   12  C   UNL     1      30.481   6.356 -16.732  1.00  0.00     0.000 C 
BRANCH  12  13
HETATM   13  C   UNL     1      31.286   5.457 -17.678  1.00  0.00     0.000 C 
BRANCH  13  14
HETATM   14  C   UNL     1      32.562   6.161 -18.155  1.00  0.00     0.000 C 
BRANCH  14  15
HETATM   15  C   UNL     1      32.520   6.412 -19.667  1.00  0.00    -0.000 C 
BRANCH  15  16
HETATM   16  C   UNL     1      33.232   5.289 -20.430  1.00  0.00    -0.005 C 
HETATM   17  C   UNL     1      32.357   4.749 -21.558  1.00  0.00     0.005 C 
ENDBRANCH  15  16
ENDBRANCH  14  15
ENDBRANCH  13  14
ENDBRANCH  12  13
ENDBRANCH  11  12
ENDBRANCH  10  11
ENDBRANCH   9  10
ENDBRANCH   8   9
ENDBRANCH   7   8
ENDBRANCH   6   7
ENDBRANCH   5   6
ENDBRANCH   3   5
ENDBRANCH   1   3
TORSDOF 13
ENDMDL
MODEL 11
REMARK VINA RESULT:      -4.3     20.598     22.555
REMARK  13 active torsions:
REMARK  status: ('A' for Active; 'I' for Inactive)
REMARK    1  A    between atoms: O_1  and  C_16 
REMARK    2  A    between atoms: C_3  and  C_4 
REMARK    3  A    between atoms: C_3  and  C_5 
REMARK    4  A    between atoms: C_4  and  C_6 
REMARK    5  A    between atoms: C_5  and  C_7 
REMARK    6  A    between atoms: C_6  and  C_8 
REMARK    7  A    between atoms: C_7  and  C_9 
REMARK    8  A    between atoms: C_8  and  C_10 
REMARK    9  A    between atoms: C_9  and  C_11 
REMARK   10  A    between atoms: C_10  and  C_12 
REMARK   11  A    between atoms: C_11  and  C_13 
REMARK   12  A    between atoms: C_12  and  C_14 
REMARK   13  A    between atoms: C_14  and  C_16 
ROOT
HETATM    1  O   UNL     1      28.858  11.924 -13.281  1.00  0.00    -0.776 OA
HETATM    2  H   UNL     1      29.204  12.815 -13.128  1.00  0.00     0.167 HD
ENDROOT
BRANCH   1   3
HETATM    3  C   UNL     1      29.396  10.844 -12.677  1.00  0.00     0.139 C 
HETATM    4  O   UNL     1      29.096  10.584 -11.520  1.00  0.00    -0.650 OA
BRANCH   3   5
HETATM    5  C   UNL     1      30.359   9.980 -13.449  1.00  0.00     0.110 C 
BRANCH   5   6
HETATM    6  C   UNL     1      31.051   8.921 -12.577  1.00  0.00     0.010 C 
BRANCH   6   7
HETATM    7  C   UNL     1      31.168   7.586 -13.321  1.00  0.00     0.001 C 
BRANCH   7   8
HETATM    8  C   UNL     1      32.475   6.869 -12.964  1.00  0.00     0.000 C 
BRANCH   8   9
HETATM    9  C   UNL     1      32.306   5.347 -13.033  1.00  0.00     0.000 C 
BRANCH   9  10
HETATM   10  C   UNL     1      32.292   4.731 -11.629  1.00  0.00     0.000 C 
BRANCH  10  11
HETATM   11  C   UNL     1      33.215   5.504 -10.680  1.00  0.00     0.000 C 
BRANCH  11  12
HETATM   12  C   UNL     1      32.758   5.355  -9.224  1.00  0.00     0.000 C 
BRANCH  12  13
HETATM   13  C   UNL     1      31.250   5.600  -9.093  1.00  0.00     0.000 C 
BRANCH  13  14
HETATM   14  C   UNL     1      30.967   6.849  -8.248  1.00  0.00     0.000 C 
BRANCH  14  15
HETATM   15  C   UNL     1      30.811   8.089  -9.135  1.00  0.00    -0.000 C 
BRANCH  15  16
HETATM   16  C   UNL     1      31.793   9.190  -8.719  1.00  0.00    -0.005 C 
HETATM   17  C   UNL     1      33.101   9.085  -9.500  1.00  0.00     0.005 C 
ENDBRANCH  15  16
ENDBRANCH  14  15
ENDBRANCH  13  14
ENDBRANCH  12  13
ENDBRANCH  11  12
ENDBRANCH  10  11
ENDBRANCH   9  10
ENDBRANCH   8   9
ENDBRANCH   7   8
ENDBRANCH   6   7
ENDBRANCH   5   6
ENDBRANCH   3   5
ENDBRANCH   1   3
TORSDOF 13
ENDMDL
MODEL 12
REMARK VINA RESULT:      -4.3     21.465     23.309
REMARK  13 active torsions:
REMARK  status: ('A' for Active; 'I' for Inactive)
REMARK    1  A    between atoms: O_1  and  C_16 
REMARK    2  A    between atoms: C_3  and  C_4 
REMARK    3  A    between atoms: C_3  and  C_5 
REMARK    4  A    between atoms: C_4  and  C_6 
REMARK    5  A    between atoms: C_5  and  C_7 
REMARK    6  A    between atoms: C_6  and  C_8 
REMARK    7  A    between atoms: C_7  and  C_9 
REMARK    8  A    between atoms: C_8  and  C_10 
REMARK    9  A    between atoms: C_9  and  C_11 
REMARK   10  A    between atoms: C_10  and  C_12 
REMARK   11  A    between atoms: C_11  and  C_13 
REMARK   12  A    between atoms: C_12  and  C_14 
REMARK   13  A    between atoms: C_14  and  C_16 
ROOT
HETATM    1  O   UNL     1      29.055  11.397 -17.859  1.00  0.00    -0.776 OA
HETATM    2  H   UNL     1      28.407  11.632 -17.179  1.00  0.00     0.167 HD
ENDROOT
BRANCH   1   3
HETATM    3  C   UNL     1      28.694  11.225 -19.148  1.00  0.00     0.139 C 
HETATM    4  O   UNL     1      27.780  10.462 -19.425  1.00  0.00    -0.650 OA
BRANCH   3   5
HETATM    5  C   UNL     1      29.432  11.984 -20.220  1.00  0.00     0.110 C 
BRANCH   5   6
HETATM    6  C   UNL     1      30.875  11.497 -20.419  1.00  0.00     0.010 C 
BRANCH   6   7
HETATM    7  C   UNL     1      30.908  10.009 -20.785  1.00  0.00     0.001 C 
BRANCH   7   8
HETATM    8  C   UNL     1      32.328   9.564 -21.156  1.00  0.00     0.000 C 
BRANCH   8   9
HETATM    9  C   UNL     1      32.300   8.476 -22.235  1.00  0.00     0.000 C 
BRANCH   9  10
HETATM   10  C   UNL     1      30.895   7.880 -22.380  1.00  0.00     0.000 C 
BRANCH  10  11
HETATM   11  C   UNL     1      30.956   6.357 -22.542  1.00  0.00     0.000 C 
BRANCH  11  12
HETATM   12  C   UNL     1      32.404   5.854 -22.475  1.00  0.00     0.000 C 
BRANCH  12  13
HETATM   13  C   UNL     1      32.600   4.897 -21.294  1.00  0.00     0.000 C 
BRANCH  13  14
HETATM   14  C   UNL     1      33.554   5.494 -20.253  1.00  0.00     0.000 C 
BRANCH  14  15
HETATM   15  C   UNL     1      32.888   5.568 -18.874  1.00  0.00    -0.000 C 
BRANCH  15  16
HETATM   16  C   UNL     1      32.445   7.001 -18.555  1.00  0.00    -0.005 C 
HETATM   17  C   UNL     1      30.924   7.129 -18.595  1.00  0.00     0.005 C 
ENDBRANCH  15  16
ENDBRANCH  14  15
ENDBRANCH  13  14
ENDBRANCH  12  13
ENDBRANCH  11  12
ENDBRANCH  10  11
ENDBRANCH   9  10
ENDBRANCH   8   9
ENDBRANCH   7   8
ENDBRANCH   6   7
ENDBRANCH   5   6
ENDBRANCH   3   5
ENDBRANCH   1   3
TORSDOF 13
ENDMDL
MODEL 13
REMARK VINA RESULT:      -4.3     19.012     19.903
REMARK  13 active torsions:
REMARK  status: ('A' for Active; 'I' for Inactive)
REMARK    1  A    between atoms: O_1  and  C_16 
REMARK    2  A    between atoms: C_3  and  C_4 
REMARK    3  A    between atoms: C_3  and  C_5 
REMARK    4  A    between atoms: C_4  and  C_6 
REMARK    5  A    between atoms: C_5  and  C_7 
REMARK    6  A    between atoms: C_6  and  C_8 
REMARK    7  A    between atoms: C_7  and  C_9 
REMARK    8  A    between atoms: C_8  and  C_10 
REMARK    9  A    between atoms: C_9  and  C_11 
REMARK   10  A    between atoms: C_10  and  C_12 
REMARK   11  A    between atoms: C_11  and  C_13 
REMARK   12  A    between atoms: C_12  and  C_14 
REMARK   13  A    between atoms: C_14  and  C_16 
ROOT
HETATM    1  O   UNL     1      31.814   8.306  -6.936  1.00  0.00    -0.776 OA
HETATM    2  H   UNL     1      31.917   8.297  -5.974  1.00  0.00     0.167 HD
ENDROOT
BRANCH   1   3
HETATM    3  C   UNL     1      30.955   7.474  -7.561  1.00  0.00     0.139 C 
HETATM    4  O   UNL     1      30.045   6.956  -6.930  1.00  0.00    -0.650 OA
BRANCH   3   5
HETATM    5  C   UNL     1      31.141   7.202  -9.032  1.00  0.00     0.110 C 
BRANCH   5   6
HETATM    6  C   UNL     1      31.603   5.767  -9.326  1.00  0.00     0.010 C 
BRANCH   6   7
HETATM    7  C   UNL     1      33.114   5.717  -9.580  1.00  0.00     0.001 C 
BRANCH   7   8
HETATM    8  C   UNL     1      33.423   5.089 -10.944  1.00  0.00     0.000 C 
BRANCH   8   9
HETATM    9  C   UNL     1      32.135   4.833 -11.737  1.00  0.00     0.000 C 
BRANCH   9  10
HETATM   10  C   UNL     1      32.003   5.817 -12.905  1.00  0.00     0.000 C 
BRANCH  10  11
HETATM   11  C   UNL     1      30.956   5.334 -13.916  1.00  0.00     0.000 C 
BRANCH  11  12
HETATM   12  C   UNL     1      31.511   5.374 -15.344  1.00  0.00     0.000 C 
BRANCH  12  13
HETATM   13  C   UNL     1      30.663   6.284 -16.240  1.00  0.00     0.000 C 
BRANCH  13  14
HETATM   14  C   UNL     1      31.408   6.633 -17.534  1.00  0.00     0.000 C 
BRANCH  14  15
HETATM   15  C   UNL     1      32.450   5.562 -17.874  1.00  0.00    -0.000 C 
BRANCH  15  16
HETATM   16  C   UNL     1      32.594   5.398 -19.392  1.00  0.00    -0.005 C 
HETATM   17  C   UNL     1      33.289   6.607 -20.013  1.00  0.00     0.005 C 
ENDBRANCH  15  16
ENDBRANCH  14  15
ENDBRANCH  13  14
ENDBRANCH  12  13
ENDBRANCH  11  12
ENDBRANCH  10  11
ENDBRANCH   9  10
ENDBRANCH   8   9
ENDBRANCH   7   8
ENDBRANCH   6   7
ENDBRANCH   5   6
ENDBRANCH   3   5
ENDBRANCH   1   3
TORSDOF 13
ENDMDL
MODEL 14
REMARK VINA RESULT:      -4.3     20.875     22.648
REMARK  13 active torsions:
REMARK  status: ('A' for Active; 'I' for Inactive)
REMARK    1  A    between atoms: O_1  and  C_16 
REMARK    2  A    between atoms: C_3  and  C_4 
REMARK    3  A    between atoms: C_3  and  C_5 
REMARK    4  A    between atoms: C_4  and  C_6 
REMARK    5  A    between atoms: C_5  and  C_7 
REMARK    6  A    between atoms: C_6  and  C_8 
REMARK    7  A    between atoms: C_7  and  C_9 
REMARK    8  A    between atoms: C_8  and  C_10 
REMARK    9  A    between atoms: C_9  and  C_11 
REMARK   10  A    between atoms: C_10  and  C_12 
REMARK   11  A    between atoms: C_11  and  C_13 
REMARK   12  A    between atoms: C_12  and  C_14 
REMARK   13  A    between atoms: C_14  and  C_16 
ROOT
HETATM    1  O   UNL     1      29.853  11.748 -19.978  1.00  0.00    -0.776 OA
HETATM    2  H   UNL     1      29.498  12.522 -20.439  1.00  0.00     0.167 HD
ENDROOT
BRANCH   1   3
HETATM    3  C   UNL     1      29.068  10.699 -19.654  1.00  0.00     0.139 C 
HETATM    4  O   UNL     1      27.993  10.893 -19.103  1.00  0.00    -0.650 OA
BRANCH   3   5
HETATM    5  C   UNL     1      29.538   9.306 -19.981  1.00  0.00     0.110 C 
BRANCH   5   6
HETATM    6  C   UNL     1      30.487   8.725 -18.921  1.00  0.00     0.010 C 
BRANCH   6   7
HETATM    7  C   UNL     1      31.811   8.279 -19.553  1.00  0.00     0.001 C 
BRANCH   7   8
HETATM    8  C   UNL     1      31.629   6.987 -20.359  1.00  0.00     0.000 C 
BRANCH   8   9
HETATM    9  C   UNL     1      31.216   5.824 -19.449  1.00  0.00     0.000 C 
BRANCH   9  10
HETATM   10  C   UNL     1      32.436   5.212 -18.750  1.00  0.00     0.000 C 
BRANCH  10  11
HETATM   11  C   UNL     1      32.109   4.840 -17.299  1.00  0.00     0.000 C 
BRANCH  11  12
HETATM   12  C   UNL     1      30.809   5.509 -16.838  1.00  0.00     0.000 C 
BRANCH  12  13
HETATM   13  C   UNL     1      30.745   5.591 -15.309  1.00  0.00     0.000 C 
BRANCH  13  14
HETATM   14  C   UNL     1      31.865   6.480 -14.757  1.00  0.00     0.000 C 
BRANCH  14  15
HETATM   15  C   UNL     1      31.886   7.841 -15.463  1.00  0.00    -0.000 C 
BRANCH  15  16
HETATM   16  C   UNL     1      33.249   8.102 -16.114  1.00  0.00    -0.005 C 
HETATM   17  C   UNL     1      34.384   7.553 -15.254  1.00  0.00     0.005 C 
ENDBRANCH  15  16
ENDBRANCH  14  15
ENDBRANCH  13  14
ENDBRANCH  12  13
ENDBRANCH  11  12
ENDBRANCH  10  11
ENDBRANCH   9  10
ENDBRANCH   8   9
ENDBRANCH   7   8
ENDBRANCH   6   7
ENDBRANCH   5   6
ENDBRANCH   3   5
ENDBRANCH   1   3
TORSDOF 13
ENDMDL
MODEL 15
REMARK VINA RESULT:      -4.3      8.292     14.474
REMARK  13 active torsions:
REMARK  status: ('A' for Active; 'I' for Inactive)
REMARK    1  A    between atoms: O_1  and  C_16 
REMARK    2  A    between atoms: C_3  and  C_4 
REMARK    3  A    between atoms: C_3  and  C_5 
REMARK    4  A    between atoms: C_4  and  C_6 
REMARK    5  A    between atoms: C_5  and  C_7 
REMARK    6  A    between atoms: C_6  and  C_8 
REMARK    7  A    between atoms: C_7  and  C_9 
REMARK    8  A    between atoms: C_8  and  C_10 
REMARK    9  A    between atoms: C_9  and  C_11 
REMARK   10  A    between atoms: C_10  and  C_12 
REMARK   11  A    between atoms: C_11  and  C_13 
REMARK   12  A    between atoms: C_12  and  C_14 
REMARK   13  A    between atoms: C_14  and  C_16 
ROOT
HETATM    1  O   UNL     1      46.846  -5.046  -8.476  1.00  0.00    -0.776 OA
HETATM    2  H   UNL     1      46.225  -5.333  -9.160  1.00  0.00     0.167 HD
ENDROOT
BRANCH   1   3
HETATM    3  C   UNL     1      47.120  -5.816  -7.403  1.00  0.00     0.139 C 
HETATM    4  O   UNL     1      47.343  -7.010  -7.554  1.00  0.00    -0.650 OA
BRANCH   3   5
HETATM    5  C   UNL     1      47.145  -5.183  -6.036  1.00  0.00     0.110 C 
BRANCH   5   6
HETATM    6  C   UNL     1      47.455  -6.185  -4.913  1.00  0.00     0.010 C 
BRANCH   6   7
HETATM    7  C   UNL     1      46.565  -5.934  -3.691  1.00  0.00     0.001 C 
BRANCH   7   8
HETATM    8  C   UNL     1      47.404  -5.543  -2.469  1.00  0.00     0.000 C 
BRANCH   8   9
HETATM    9  C   UNL     1      46.686  -4.486  -1.622  1.00  0.00     0.000 C 
BRANCH   9  10
HETATM   10  C   UNL     1      47.269  -4.426  -0.205  1.00  0.00     0.000 C 
BRANCH  10  11
HETATM   11  C   UNL     1      47.202  -3.001   0.357  1.00  0.00     0.000 C 
BRANCH  11  12
HETATM   12  C   UNL     1      48.606  -2.409   0.524  1.00  0.00     0.000 C 
BRANCH  12  13
HETATM   13  C   UNL     1      49.571  -3.438   1.124  1.00  0.00     0.000 C 
BRANCH  13  14
HETATM   14  C   UNL     1      50.981  -3.276   0.544  1.00  0.00     0.000 C 
BRANCH  14  15
HETATM   15  C   UNL     1      51.402  -4.526  -0.238  1.00  0.00    -0.000 C 
BRANCH  15  16
HETATM   16  C   UNL     1      52.866  -4.883   0.044  1.00  0.00    -0.005 C 
HETATM   17  C   UNL     1      53.387  -4.142   1.273  1.00  0.00     0.005 C 
ENDBRANCH  15  16
ENDBRANCH  14  15
ENDBRANCH  13  14
ENDBRANCH  12  13
ENDBRANCH  11  12
ENDBRANCH  10  11
ENDBRANCH   9  10
ENDBRANCH   8   9
ENDBRANCH   7   8
ENDBRANCH   6   7
ENDBRANCH   5   6
ENDBRANCH   3   5
ENDBRANCH   1   3
TORSDOF 13
ENDMDL
MODEL 16
REMARK VINA RESULT:      -4.2     66.050     67.378
REMARK  13 active torsions:
REMARK  status: ('A' for Active; 'I' for Inactive)
REMARK    1  A    between atoms: O_1  and  C_16 
REMARK    2  A    between atoms: C_3  and  C_4 
REMARK    3  A    between atoms: C_3  and  C_5 
REMARK    4  A    between atoms: C_4  and  C_6 
REMARK    5  A    between atoms: C_5  and  C_7 
REMARK    6  A    between atoms: C_6  and  C_8 
REMARK    7  A    between atoms: C_7  and  C_9 
REMARK    8  A    between atoms: C_8  and  C_10 
REMARK    9  A    between atoms: C_9  and  C_11 
REMARK   10  A    between atoms: C_10  and  C_12 
REMARK   11  A    between atoms: C_11  and  C_13 
REMARK   12  A    between atoms: C_12  and  C_14 
REMARK   13  A    between atoms: C_14  and  C_16 
ROOT
HETATM    1  O   UNL     1     -20.401  12.893 -11.894  1.00  0.00    -0.776 OA
HETATM    2  H   UNL     1     -20.768  13.645 -11.408  1.00  0.00     0.167 HD
ENDROOT
BRANCH   1   3
HETATM    3  C   UNL     1     -19.978  13.016 -13.169  1.00  0.00     0.139 C 
HETATM    4  O   UNL     1     -20.302  13.997 -13.824  1.00  0.00    -0.650 OA
BRANCH   3   5
HETATM    5  C   UNL     1     -19.110  11.935 -13.759  1.00  0.00     0.110 C 
BRANCH   5   6
HETATM    6  C   UNL     1     -18.065  12.473 -14.748  1.00  0.00     0.010 C 
BRANCH   6   7
HETATM    7  C   UNL     1     -17.740  11.432 -15.826  1.00  0.00     0.001 C 
BRANCH   7   8
HETATM    8  C   UNL     1     -16.248  11.450 -16.177  1.00  0.00     0.000 C 
BRANCH   8   9
HETATM    9  C   UNL     1     -15.393  11.736 -14.937  1.00  0.00     0.000 C 
BRANCH   9  10
HETATM   10  C   UNL     1     -14.476  10.550 -14.615  1.00  0.00     0.000 C 
BRANCH  10  11
HETATM   11  C   UNL     1     -14.461  10.258 -13.110  1.00  0.00     0.000 C 
BRANCH  11  12
HETATM   12  C   UNL     1     -15.490  11.122 -12.372  1.00  0.00     0.000 C 
BRANCH  12  13
HETATM   13  C   UNL     1     -15.075  11.344 -10.912  1.00  0.00     0.000 C 
BRANCH  13  14
HETATM   14  C   UNL     1     -16.238  11.913 -10.090  1.00  0.00     0.000 C 
BRANCH  14  15
HETATM   15  C   UNL     1     -16.236  11.343  -8.667  1.00  0.00    -0.000 C 
BRANCH  15  16
HETATM   16  C   UNL     1     -17.605  11.525  -8.001  1.00  0.00    -0.005 C 
HETATM   17  C   UNL     1     -18.583  12.234  -8.935  1.00  0.00     0.005 C 
ENDBRANCH  15  16
ENDBRANCH  14  15
ENDBRANCH  13  14
ENDBRANCH  12  13
ENDBRANCH  11  12
ENDBRANCH  10  11
ENDBRANCH   9  10
ENDBRANCH   8   9
ENDBRANCH   7   8
ENDBRANCH   6   7
ENDBRANCH   5   6
ENDBRANCH   3   5
ENDBRANCH   1   3
TORSDOF 13
ENDMDL
MODEL 17
REMARK VINA RESULT:      -4.2     21.019     22.619
REMARK  13 active torsions:
REMARK  status: ('A' for Active; 'I' for Inactive)
REMARK    1  A    between atoms: O_1  and  C_16 
REMARK    2  A    between atoms: C_3  and  C_4 
REMARK    3  A    between atoms: C_3  and  C_5 
REMARK    4  A    between atoms: C_4  and  C_6 
REMARK    5  A    between atoms: C_5  and  C_7 
REMARK    6  A    between atoms: C_6  and  C_8 
REMARK    7  A    between atoms: C_7  and  C_9 
REMARK    8  A    between atoms: C_8  and  C_10 
REMARK    9  A    between atoms: C_9  and  C_11 
REMARK   10  A    between atoms: C_10  and  C_12 
REMARK   11  A    between atoms: C_11  and  C_13 
REMARK   12  A    between atoms: C_12  and  C_14 
REMARK   13  A    between atoms: C_14  and  C_16 
ROOT
HETATM    1  O   UNL     1      29.073  10.697 -21.730  1.00  0.00    -0.776 OA
HETATM    2  H   UNL     1      28.866  11.582 -22.061  1.00  0.00     0.167 HD
ENDROOT
BRANCH   1   3
HETATM    3  C   UNL     1      30.167  10.026 -22.147  1.00  0.00     0.139 C 
HETATM    4  O   UNL     1      30.470  10.035 -23.332  1.00  0.00    -0.650 OA
BRANCH   3   5
HETATM    5  C   UNL     1      30.993   9.276 -21.134  1.00  0.00     0.110 C 
BRANCH   5   6
HETATM    6  C   UNL     1      30.167   8.748 -19.952  1.00  0.00     0.010 C 
BRANCH   6   7
HETATM    7  C   UNL     1      30.443   9.561 -18.682  1.00  0.00     0.001 C 
BRANCH   7   8
HETATM    8  C   UNL     1      31.909   9.432 -18.253  1.00  0.00     0.000 C 
BRANCH   8   9
HETATM    9  C   UNL     1      32.023   8.774 -16.873  1.00  0.00     0.000 C 
BRANCH   9  10
HETATM   10  C   UNL     1      32.232   7.260 -17.000  1.00  0.00     0.000 C 
BRANCH  10  11
HETATM   11  C   UNL     1      30.934   6.498 -16.707  1.00  0.00     0.000 C 
BRANCH  11  12
HETATM   12  C   UNL     1      30.709   5.380 -17.732  1.00  0.00     0.000 C 
BRANCH  12  13
HETATM   13  C   UNL     1      31.890   5.278 -18.704  1.00  0.00     0.000 C 
BRANCH  13  14
HETATM   14  C   UNL     1      31.413   5.354 -20.159  1.00  0.00     0.000 C 
BRANCH  14  15
HETATM   15  C   UNL     1      32.517   5.899 -21.073  1.00  0.00    -0.000 C 
BRANCH  15  16
HETATM   16  C   UNL     1      33.807   6.154 -20.284  1.00  0.00    -0.005 C 
HETATM   17  C   UNL     1      34.309   7.580 -20.497  1.00  0.00     0.005 C 
ENDBRANCH  15  16
ENDBRANCH  14  15
ENDBRANCH  13  14
ENDBRANCH  12  13
ENDBRANCH  11  12
ENDBRANCH  10  11
ENDBRANCH   9  10
ENDBRANCH   8   9
ENDBRANCH   7   8
ENDBRANCH   6   7
ENDBRANCH   5   6
ENDBRANCH   3   5
ENDBRANCH   1   3
TORSDOF 13
ENDMDL
MODEL 18
REMARK VINA RESULT:      -4.2     21.055     22.187
REMARK  13 active torsions:
REMARK  status: ('A' for Active; 'I' for Inactive)
REMARK    1  A    between atoms: O_1  and  C_16 
REMARK    2  A    between atoms: C_3  and  C_4 
REMARK    3  A    between atoms: C_3  and  C_5 
REMARK    4  A    between atoms: C_4  and  C_6 
REMARK    5  A    between atoms: C_5  and  C_7 
REMARK    6  A    between atoms: C_6  and  C_8 
REMARK    7  A    between atoms: C_7  and  C_9 
REMARK    8  A    between atoms: C_8  and  C_10 
REMARK    9  A    between atoms: C_9  and  C_11 
REMARK   10  A    between atoms: C_10  and  C_12 
REMARK   11  A    between atoms: C_11  and  C_13 
REMARK   12  A    between atoms: C_12  and  C_14 
REMARK   13  A    between atoms: C_14  and  C_16 
ROOT
HETATM    1  O   UNL     1      28.334  12.742 -13.282  1.00  0.00    -0.776 OA
HETATM    2  H   UNL     1      28.384  12.456 -12.358  1.00  0.00     0.167 HD
ENDROOT
BRANCH   1   3
HETATM    3  C   UNL     1      28.697  11.927 -14.293  1.00  0.00     0.139 C 
HETATM    4  O   UNL     1      28.397  12.216 -15.443  1.00  0.00    -0.650 OA
BRANCH   3   5
HETATM    5  C   UNL     1      29.469  10.672 -13.979  1.00  0.00     0.110 C 
BRANCH   5   6
HETATM    6  C   UNL     1      30.225  10.110 -15.192  1.00  0.00     0.010 C 
BRANCH   6   7
HETATM    7  C   UNL     1      30.295   8.579 -15.136  1.00  0.00     0.001 C 
BRANCH   7   8
HETATM    8  C   UNL     1      31.487   8.113 -14.291  1.00  0.00     0.000 C 
BRANCH   8   9
HETATM    9  C   UNL     1      31.195   6.763 -13.625  1.00  0.00     0.000 C 
BRANCH   9  10
HETATM   10  C   UNL     1      31.806   5.609 -14.429  1.00  0.00     0.000 C 
BRANCH  10  11
HETATM   11  C   UNL     1      30.863   5.158 -15.550  1.00  0.00     0.000 C 
BRANCH  11  12
HETATM   12  C   UNL     1      31.642   4.845 -16.833  1.00  0.00     0.000 C 
BRANCH  12  13
HETATM   13  C   UNL     1      30.911   5.385 -18.067  1.00  0.00     0.000 C 
BRANCH  13  14
HETATM   14  C   UNL     1      31.840   5.418 -19.287  1.00  0.00     0.000 C 
BRANCH  14  15
HETATM   15  C   UNL     1      33.173   6.094 -18.945  1.00  0.00    -0.000 C 
BRANCH  15  16
HETATM   16  C   UNL     1      32.982   7.597 -18.709  1.00  0.00    -0.005 C 
HETATM   17  C   UNL     1      33.545   8.017 -17.353  1.00  0.00     0.005 C 
ENDBRANCH  15  16
ENDBRANCH  14  15
ENDBRANCH  13  14
ENDBRANCH  12  13
ENDBRANCH  11  12
ENDBRANCH  10  11
ENDBRANCH   9  10
ENDBRANCH   8   9
ENDBRANCH   7   8
ENDBRANCH   6   7
ENDBRANCH   5   6
ENDBRANCH   3   5
ENDBRANCH   1   3
TORSDOF 13
ENDMDL
MODEL 19
REMARK VINA RESULT:      -4.1     19.113     21.137
REMARK  13 active torsions:
REMARK  status: ('A' for Active; 'I' for Inactive)
REMARK    1  A    between atoms: O_1  and  C_16 
REMARK    2  A    between atoms: C_3  and  C_4 
REMARK    3  A    between atoms: C_3  and  C_5 
REMARK    4  A    between atoms: C_4  and  C_6 
REMARK    5  A    between atoms: C_5  and  C_7 
REMARK    6  A    between atoms: C_6  and  C_8 
REMARK    7  A    between atoms: C_7  and  C_9 
REMARK    8  A    between atoms: C_8  and  C_10 
REMARK    9  A    between atoms: C_9  and  C_11 
REMARK   10  A    between atoms: C_10  and  C_12 
REMARK   11  A    between atoms: C_11  and  C_13 
REMARK   12  A    between atoms: C_12  and  C_14 
REMARK   13  A    between atoms: C_14  and  C_16 
ROOT
HETATM    1  O   UNL     1      33.083   5.027 -14.304  1.00  0.00    -0.776 OA
HETATM    2  H   UNL     1      33.788   5.360 -13.731  1.00  0.00     0.167 HD
ENDROOT
BRANCH   1   3
HETATM    3  C   UNL     1      33.116   5.205 -15.640  1.00  0.00     0.139 C 
HETATM    4  O   UNL     1      32.907   4.257 -16.385  1.00  0.00    -0.650 OA
BRANCH   3   5
HETATM    5  C   UNL     1      33.413   6.577 -16.187  1.00  0.00     0.110 C 
BRANCH   5   6
HETATM    6  C   UNL     1      32.238   7.181 -16.971  1.00  0.00     0.010 C 
BRANCH   6   7
HETATM    7  C   UNL     1      32.111   8.685 -16.701  1.00  0.00     0.001 C 
BRANCH   7   8
HETATM    8  C   UNL     1      32.684   9.048 -15.326  1.00  0.00     0.000 C 
BRANCH   8   9
HETATM    9  C   UNL     1      31.690   9.891 -14.520  1.00  0.00     0.000 C 
BRANCH   9  10
HETATM   10  C   UNL     1      30.773   9.001 -13.672  1.00  0.00     0.000 C 
BRANCH  10  11
HETATM   11  C   UNL     1      31.541   7.801 -13.106  1.00  0.00     0.000 C 
BRANCH  11  12
HETATM   12  C   UNL     1      32.342   8.197 -11.860  1.00  0.00     0.000 C 
BRANCH  12  13
HETATM   13  C   UNL     1      33.827   7.854 -12.027  1.00  0.00     0.000 C 
BRANCH  13  14
HETATM   14  C   UNL     1      34.341   7.040 -10.834  1.00  0.00     0.000 C 
BRANCH  14  15
HETATM   15  C   UNL     1      33.347   7.085  -9.668  1.00  0.00    -0.000 C 
BRANCH  15  16
HETATM   16  C   UNL     1      32.923   5.671  -9.253  1.00  0.00    -0.005 C 
HETATM   17  C   UNL     1      31.430   5.453  -9.486  1.00  0.00     0.005 C 
ENDBRANCH  15  16
ENDBRANCH  14  15
ENDBRANCH  13  14
ENDBRANCH  12  13
ENDBRANCH  11  12
ENDBRANCH  10  11
ENDBRANCH   9  10
ENDBRANCH   8   9
ENDBRANCH   7   8
ENDBRANCH   6   7
ENDBRANCH   5   6
ENDBRANCH   3   5
ENDBRANCH   1   3
TORSDOF 13
ENDMDL
MODEL 20
REMARK VINA RESULT:      -4.1     20.438     22.020
REMARK  13 active torsions:
REMARK  status: ('A' for Active; 'I' for Inactive)
REMARK    1  A    between atoms: O_1  and  C_16 
REMARK    2  A    between atoms: C_3  and  C_4 
REMARK    3  A    between atoms: C_3  and  C_5 
REMARK    4  A    between atoms: C_4  and  C_6 
REMARK    5  A    between atoms: C_5  and  C_7 
REMARK    6  A    between atoms: C_6  and  C_8 
REMARK    7  A    between atoms: C_7  and  C_9 
REMARK    8  A    between atoms: C_8  and  C_10 
REMARK    9  A    between atoms: C_9  and  C_11 
REMARK   10  A    between atoms: C_10  and  C_12 
REMARK   11  A    between atoms: C_11  and  C_13 
REMARK   12  A    between atoms: C_12  and  C_14 
REMARK   13  A    between atoms: C_14  and  C_16 
ROOT
HETATM    1  O   UNL     1      30.497   7.646 -17.221  1.00  0.00    -0.776 OA
HETATM    2  H   UNL     1      31.156   8.195 -16.774  1.00  0.00     0.167 HD
ENDROOT
BRANCH   1   3
HETATM    3  C   UNL     1      30.845   6.513 -17.867  1.00  0.00     0.139 C 
HETATM    4  O   UNL     1      31.237   6.571 -19.025  1.00  0.00    -0.650 OA
BRANCH   3   5
HETATM    5  C   UNL     1      30.741   5.197 -17.142  1.00  0.00     0.110 C 
BRANCH   5   6
HETATM    6  C   UNL     1      31.990   4.865 -16.312  1.00  0.00     0.010 C 
BRANCH   6   7
HETATM    7  C   UNL     1      31.821   5.323 -14.858  1.00  0.00     0.001 C 
BRANCH   7   8
HETATM    8  C   UNL     1      33.105   5.978 -14.335  1.00  0.00     0.000 C 
BRANCH   8   9
HETATM    9  C   UNL     1      33.948   6.536 -15.488  1.00  0.00     0.000 C 
BRANCH   9  10
HETATM   10  C   UNL     1      34.303   8.008 -15.247  1.00  0.00     0.000 C 
BRANCH  10  11
HETATM   11  C   UNL     1      33.967   8.428 -13.812  1.00  0.00     0.000 C 
BRANCH  11  12
HETATM   12  C   UNL     1      33.064   9.667 -13.797  1.00  0.00     0.000 C 
BRANCH  12  13
HETATM   13  C   UNL     1      31.913   9.521 -14.799  1.00  0.00     0.000 C 
BRANCH  13  14
HETATM   14  C   UNL     1      30.620   9.092 -14.094  1.00  0.00     0.000 C 
BRANCH  14  15
HETATM   15  C   UNL     1      29.422   9.905 -14.599  1.00  0.00    -0.000 C 
BRANCH  15  16
HETATM   16  C   UNL     1      29.625  11.402 -14.339  1.00  0.00    -0.005 C 
HETATM   17  C   UNL     1      29.473  11.730 -12.856  1.00  0.00     0.005 C 
ENDBRANCH  15  16
ENDBRANCH  14  15
ENDBRANCH  13  14
ENDBRANCH  12  13
ENDBRANCH  11  12
ENDBRANCH  10  11
ENDBRANCH   9  10
ENDBRANCH   8   9
ENDBRANCH   7   8
ENDBRANCH   6   7
ENDBRANCH   5   6
ENDBRANCH   3   5
ENDBRANCH   1   3
TORSDOF 13
ENDMDL
