MODEL 1
REMARK VINA RESULT:      -4.5      0.000      0.000
REMARK  16 active torsions:
REMARK  status: ('A' for Active; 'I' for Inactive)
REMARK    1  A    between atoms: O_1  and  C_20 
REMARK    2  A    between atoms: C_3  and  C_4 
REMARK    3  A    between atoms: C_3  and  C_5 
REMARK    4  A    between atoms: C_4  and  C_8 
REMARK    5  A    between atoms: C_5  and  C_11 
REMARK    6  A    between atoms: C_6  and  C_7 
REMARK    7  A    between atoms: C_6  and  C_9 
REMARK    8  A    between atoms: C_7  and  C_10 
REMARK    9  A    between atoms: C_8  and  C_12 
REMARK   10  A    between atoms: C_9  and  C_13 
REMARK   11  A    between atoms: C_10  and  C_14 
REMARK   12  A    between atoms: C_11  and  C_15 
REMARK   13  A    between atoms: C_12  and  C_16 
REMARK   14  A    between atoms: C_13  and  C_17 
REMARK   15  A    between atoms: C_14  and  C_18 
REMARK   16  A    between atoms: C_18  and  C_20 
ROOT
HETATM    1  O   UNL     1      30.962   5.035 -10.760  1.00  0.00    -0.776 OA
HETATM    2  H   UNL     1      30.505   4.262 -10.400  1.00  0.00     0.167 HD
ENDROOT
BRANCH   1   3
HETATM    3  C   UNL     1      31.574   4.996 -11.962  1.00  0.00     0.139 C 
HETATM    4  O   UNL     1      32.767   4.731 -12.027  1.00  0.00    -0.650 OA
BRANCH   3   5
HETATM    5  C   UNL     1      30.769   5.280 -13.203  1.00  0.00     0.110 C 
BRANCH   5   6
HETATM    6  C   UNL     1      31.062   6.660 -13.808  1.00  0.00     0.010 C 
BRANCH   6   7
HETATM    7  C   UNL     1      31.342   7.694 -12.710  1.00  0.00     0.001 C 
BRANCH   7   8
HETATM    8  C   UNL     1      32.492   8.623 -13.114  1.00  0.00     0.000 C 
BRANCH   8   9
HETATM    9  C   UNL     1      33.654   7.829 -13.723  1.00  0.00     0.000 C 
BRANCH   9  10
HETATM   10  C   UNL     1      33.830   8.175 -15.205  1.00  0.00     0.004 C 
BRANCH  10  11
HETATM   11  C   UNL     1      34.517   7.038 -15.966  1.00  0.00     0.027 C 
BRANCH  11  12
HETATM   12  C   UNL     1      33.958   5.714 -15.503  1.00  0.00    -0.031 C 
HETATM   13  C   UNL     1      33.086   4.930 -16.168  1.00  0.00    -0.031 C 
BRANCH  13  14
HETATM   14  C   UNL     1      32.465   5.200 -17.523  1.00  0.00     0.027 C 
BRANCH  14  15
HETATM   15  C   UNL     1      30.945   5.410 -17.406  1.00  0.00     0.004 C 
BRANCH  15  16
HETATM   16  C   UNL     1      30.519   6.880 -17.212  1.00  0.00     0.000 C 
BRANCH  16  17
HETATM   17  C   UNL     1      31.407   7.875 -17.977  1.00  0.00     0.000 C 
BRANCH  17  18
HETATM   18  C   UNL     1      30.813   8.200 -19.354  1.00  0.00     0.000 C 
BRANCH  18  19
HETATM   19  C   UNL     1      31.560   7.453 -20.465  1.00  0.00    -0.000 C 
BRANCH  19  20
HETATM   20  C   UNL     1      30.579   6.822 -21.461  1.00  0.00    -0.005 C 
HETATM   21  C   UNL     1      30.396   5.333 -21.184  1.00  0.00     0.005 C 
ENDBRANCH  19  20
ENDBRANCH  18  19
ENDBRANCH  17  18
ENDBRANCH  16  17
ENDBRANCH  15  16
ENDBRANCH  14  15
ENDBRANCH  13  14
ENDBRANCH  11  12
ENDBRANCH  10  11
ENDBRANCH   9  10
ENDBRANCH   8   9
ENDBRANCH   7   8
ENDBRANCH   6   7
ENDBRANCH   5   6
ENDBRANCH   3   5
ENDBRANCH   1   3
TORSDOF 16
ENDMDL
MODEL 2
REMARK VINA RESULT:      -4.2      3.622      6.997
REMARK  16 active torsions:
REMARK  status: ('A' for Active; 'I' for Inactive)
REMARK    1  A    between atoms: O_1  and  C_20 
REMARK    2  A    between atoms: C_3  and  C_4 
REMARK    3  A    between atoms: C_3  and  C_5 
REMARK    4  A    between atoms: C_4  and  C_8 
REMARK    5  A    between atoms: C_5  and  C_11 
REMARK    6  A    between atoms: C_6  and  C_7 
REMARK    7  A    between atoms: C_6  and  C_9 
REMARK    8  A    between atoms: C_7  and  C_10 
REMARK    9  A    between atoms: C_8  and  C_12 
REMARK   10  A    between atoms: C_9  and  C_13 
REMARK   11  A    between atoms: C_10  and  C_14 
REMARK   12  A    between atoms: C_11  and  C_15 
REMARK   13  A    between atoms: C_12  and  C_16 
REMARK   14  A    between atoms: C_13  and  C_17 
REMARK   15  A    between atoms: C_14  and  C_18 
REMARK   16  A    between atoms: C_18  and  C_20 
ROOT
HETATM    1  O   UNL     1      29.676   4.501 -22.199  1.00  0.00    -0.776 OA
HETATM    2  H   UNL     1      29.678   4.462 -23.166  1.00  0.00     0.167 HD
ENDROOT
BRANCH   1   3
HETATM    3  C   UNL     1      30.338   5.468 -21.530  1.00  0.00     0.139 C 
HETATM    4  O   UNL     1      30.135   6.643 -21.805  1.00  0.00    -0.650 OA
BRANCH   3   5
HETATM    5  C   UNL     1      31.316   5.075 -20.455  1.00  0.00     0.110 C 
BRANCH   5   6
HETATM    6  C   UNL     1      32.771   5.054 -20.943  1.00  0.00     0.010 C 
BRANCH   6   7
HETATM    7  C   UNL     1      33.687   5.814 -19.975  1.00  0.00     0.001 C 
BRANCH   7   8
HETATM    8  C   UNL     1      33.880   7.265 -20.429  1.00  0.00     0.000 C 
BRANCH   8   9
HETATM    9  C   UNL     1      33.511   8.247 -19.311  1.00  0.00     0.000 C 
BRANCH   9  10
HETATM   10  C   UNL     1      32.255   9.043 -19.680  1.00  0.00     0.004 C 
BRANCH  10  11
HETATM   11  C   UNL     1      31.009   8.466 -19.003  1.00  0.00     0.027 C 
BRANCH  11  12
HETATM   12  C   UNL     1      31.113   8.661 -17.510  1.00  0.00    -0.031 C 
HETATM   13  C   UNL     1      30.941   7.719 -16.560  1.00  0.00    -0.031 C 
BRANCH  13  14
HETATM   14  C   UNL     1      30.596   6.260 -16.773  1.00  0.00     0.027 C 
BRANCH  14  15
HETATM   15  C   UNL     1      31.862   5.384 -16.775  1.00  0.00     0.004 C 
BRANCH  15  16
HETATM   16  C   UNL     1      32.481   5.157 -15.380  1.00  0.00     0.000 C 
BRANCH  16  17
HETATM   17  C   UNL     1      31.476   5.352 -14.232  1.00  0.00     0.000 C 
BRANCH  17  18
HETATM   18  C   UNL     1      32.151   5.155 -12.868  1.00  0.00     0.000 C 
BRANCH  18  19
HETATM   19  C   UNL     1      33.000   6.376 -12.494  1.00  0.00    -0.000 C 
BRANCH  19  20
HETATM   20  C   UNL     1      32.323   7.677 -12.941  1.00  0.00    -0.005 C 
HETATM   21  C   UNL     1      33.278   8.541 -13.759  1.00  0.00     0.005 C 
ENDBRANCH  19  20
ENDBRANCH  18  19
ENDBRANCH  17  18
ENDBRANCH  16  17
ENDBRANCH  15  16
ENDBRANCH  14  15
ENDBRANCH  13  14
ENDBRANCH  11  12
ENDBRANCH  10  11
ENDBRANCH   9  10
ENDBRANCH   8   9
ENDBRANCH   7   8
ENDBRANCH   6   7
ENDBRANCH   5   6
ENDBRANCH   3   5
ENDBRANCH   1   3
TORSDOF 16
ENDMDL
MODEL 3
REMARK VINA RESULT:      -4.2      3.089      7.150
REMARK  16 active torsions:
REMARK  status: ('A' for Active; 'I' for Inactive)
REMARK    1  A    between atoms: O_1  and  C_20 
REMARK    2  A    between atoms: C_3  and  C_4 
REMARK    3  A    between atoms: C_3  and  C_5 
REMARK    4  A    between atoms: C_4  and  C_8 
REMARK    5  A    between atoms: C_5  and  C_11 
REMARK    6  A    between atoms: C_6  and  C_7 
REMARK    7  A    between atoms: C_6  and  C_9 
REMARK    8  A    between atoms: C_7  and  C_10 
REMARK    9  A    between atoms: C_8  and  C_12 
REMARK   10  A    between atoms: C_9  and  C_13 
REMARK   11  A    between atoms: C_10  and  C_14 
REMARK   12  A    between atoms: C_11  and  C_15 
REMARK   13  A    between atoms: C_12  and  C_16 
REMARK   14  A    between atoms: C_13  and  C_17 
REMARK   15  A    between atoms: C_14  and  C_18 
REMARK   16  A    between atoms: C_18  and  C_20 
ROOT
HETATM    1  O   UNL     1      31.964   5.408 -18.892  1.00  0.00    -0.776 OA
HETATM    2  H   UNL     1      32.155   4.530 -19.252  1.00  0.00     0.167 HD
ENDROOT
BRANCH   1   3
HETATM    3  C   UNL     1      31.574   5.575 -17.611  1.00  0.00     0.139 C 
HETATM    4  O   UNL     1      30.729   6.418 -17.338  1.00  0.00    -0.650 OA
BRANCH   3   5
HETATM    5  C   UNL     1      32.192   4.715 -16.540  1.00  0.00     0.110 C 
BRANCH   5   6
HETATM    6  C   UNL     1      33.434   5.350 -15.900  1.00  0.00     0.010 C 
BRANCH   6   7
HETATM    7  C   UNL     1      33.048   6.229 -14.703  1.00  0.00     0.001 C 
BRANCH   7   8
HETATM    8  C   UNL     1      32.442   5.384 -13.577  1.00  0.00     0.000 C 
BRANCH   8   9
HETATM    9  C   UNL     1      30.932   5.623 -13.461  1.00  0.00     0.000 C 
BRANCH   9  10
HETATM   10  C   UNL     1      30.430   5.255 -12.061  1.00  0.00     0.004 C 
BRANCH  10  11
HETATM   11  C   UNL     1      31.260   5.940 -10.972  1.00  0.00     0.027 C 
BRANCH  11  12
HETATM   12  C   UNL     1      30.966   5.298  -9.637  1.00  0.00    -0.031 C 
HETATM   13  C   UNL     1      31.724   5.367  -8.525  1.00  0.00    -0.031 C 
BRANCH  13  14
HETATM   14  C   UNL     1      33.042   6.095  -8.362  1.00  0.00     0.027 C 
BRANCH  14  15
HETATM   15  C   UNL     1      32.823   7.606  -8.170  1.00  0.00     0.004 C 
BRANCH  15  16
HETATM   16  C   UNL     1      33.497   8.488  -9.242  1.00  0.00     0.000 C 
BRANCH  16  17
HETATM   17  C   UNL     1      34.419   7.698 -10.184  1.00  0.00     0.000 C 
BRANCH  17  18
HETATM   18  C   UNL     1      34.068   7.965 -11.654  1.00  0.00     0.000 C 
BRANCH  18  19
HETATM   19  C   UNL     1      33.496   9.375 -11.835  1.00  0.00    -0.000 C 
BRANCH  19  20
HETATM   20  C   UNL     1      32.290   9.365 -12.782  1.00  0.00    -0.005 C 
HETATM   21  C   UNL     1      30.984   9.220 -12.009  1.00  0.00     0.005 C 
ENDBRANCH  19  20
ENDBRANCH  18  19
ENDBRANCH  17  18
ENDBRANCH  16  17
ENDBRANCH  15  16
ENDBRANCH  14  15
ENDBRANCH  13  14
ENDBRANCH  11  12
ENDBRANCH  10  11
ENDBRANCH   9  10
ENDBRANCH   8   9
ENDBRANCH   7   8
ENDBRANCH   6   7
ENDBRANCH   5   6
ENDBRANCH   3   5
ENDBRANCH   1   3
TORSDOF 16
ENDMDL
MODEL 4
REMARK VINA RESULT:      -4.2      5.175      6.934
REMARK  16 active torsions:
REMARK  status: ('A' for Active; 'I' for Inactive)
REMARK    1  A    between atoms: O_1  and  C_20 
REMARK    2  A    between atoms: C_3  and  C_4 
REMARK    3  A    between atoms: C_3  and  C_5 
REMARK    4  A    between atoms: C_4  and  C_8 
REMARK    5  A    between atoms: C_5  and  C_11 
REMARK    6  A    between atoms: C_6  and  C_7 
REMARK    7  A    between atoms: C_6  and  C_9 
REMARK    8  A    between atoms: C_7  and  C_10 
REMARK    9  A    between atoms: C_8  and  C_12 
REMARK   10  A    between atoms: C_9  and  C_13 
REMARK   11  A    between atoms: C_10  and  C_14 
REMARK   12  A    between atoms: C_11  and  C_15 
REMARK   13  A    between atoms: C_12  and  C_16 
REMARK   14  A    between atoms: C_13  and  C_17 
REMARK   15  A    between atoms: C_14  and  C_18 
REMARK   16  A    between atoms: C_18  and  C_20 
ROOT
HETATM    1  O   UNL     1      31.980   4.680  -8.391  1.00  0.00    -0.776 OA
HETATM    2  H   UNL     1      32.789   4.790  -8.911  1.00  0.00     0.167 HD
ENDROOT
BRANCH   1   3
HETATM    3  C   UNL     1      31.981   4.820  -7.048  1.00  0.00     0.139 C 
HETATM    4  O   UNL     1      32.914   4.377  -6.392  1.00  0.00    -0.650 OA
BRANCH   3   5
HETATM    5  C   UNL     1      30.825   5.523  -6.386  1.00  0.00     0.110 C 
BRANCH   5   6
HETATM    6  C   UNL     1      31.144   6.974  -6.000  1.00  0.00     0.010 C 
BRANCH   6   7
HETATM    7  C   UNL     1      31.199   7.874  -7.241  1.00  0.00     0.001 C 
BRANCH   7   8
HETATM    8  C   UNL     1      32.338   8.893  -7.128  1.00  0.00     0.000 C 
BRANCH   8   9
HETATM    9  C   UNL     1      33.687   8.254  -7.476  1.00  0.00     0.000 C 
BRANCH   9  10
HETATM   10  C   UNL     1      33.621   7.551  -8.836  1.00  0.00     0.004 C 
BRANCH  10  11
HETATM   11  C   UNL     1      34.444   8.296  -9.890  1.00  0.00     0.027 C 
BRANCH  11  12
HETATM   12  C   UNL     1      34.295   7.604 -11.224  1.00  0.00    -0.031 C 
HETATM   13  C   UNL     1      34.175   8.195 -12.430  1.00  0.00    -0.031 C 
BRANCH  13  14
HETATM   14  C   UNL     1      34.154   9.681 -12.720  1.00  0.00     0.027 C 
BRANCH  14  15
HETATM   15  C   UNL     1      32.728  10.250 -12.611  1.00  0.00     0.004 C 
BRANCH  15  16
HETATM   16  C   UNL     1      32.414  10.927 -11.261  1.00  0.00     0.000 C 
BRANCH  16  17
HETATM   17  C   UNL     1      31.331  10.194 -10.452  1.00  0.00     0.000 C 
BRANCH  17  18
HETATM   18  C   UNL     1      30.532   9.233 -11.342  1.00  0.00     0.000 C 
BRANCH  18  19
HETATM   19  C   UNL     1      30.585   7.803 -10.792  1.00  0.00    -0.000 C 
BRANCH  19  20
HETATM   20  C   UNL     1      30.720   6.780 -11.927  1.00  0.00    -0.005 C 
HETATM   21  C   UNL     1      30.358   5.377 -11.449  1.00  0.00     0.005 C 
ENDBRANCH  19  20
ENDBRANCH  18  19
ENDBRANCH  17  18
ENDBRANCH  16  17
ENDBRANCH  15  16
ENDBRANCH  14  15
ENDBRANCH  13  14
ENDBRANCH  11  12
ENDBRANCH  10  11
ENDBRANCH   9  10
ENDBRANCH   8   9
ENDBRANCH   7   8
ENDBRANCH   6   7
ENDBRANCH   5   6
ENDBRANCH   3   5
ENDBRANCH   1   3
TORSDOF 16
ENDMDL
MODEL 5
REMARK VINA RESULT:      -4.0      4.395      7.038
REMARK  16 active torsions:
REMARK  status: ('A' for Active; 'I' for Inactive)
REMARK    1  A    between atoms: O_1  and  C_20 
REMARK    2  A    between atoms: C_3  and  C_4 
REMARK    3  A    between atoms: C_3  and  C_5 
REMARK    4  A    between atoms: C_4  and  C_8 
REMARK    5  A    between atoms: C_5  and  C_11 
REMARK    6  A    between atoms: C_6  and  C_7 
REMARK    7  A    between atoms: C_6  and  C_9 
REMARK    8  A    between atoms: C_7  and  C_10 
REMARK    9  A    between atoms: C_8  and  C_12 
REMARK   10  A    between atoms: C_9  and  C_13 
REMARK   11  A    between atoms: C_10  and  C_14 
REMARK   12  A    between atoms: C_11  and  C_15 
REMARK   13  A    between atoms: C_12  and  C_16 
REMARK   14  A    between atoms: C_13  and  C_17 
REMARK   15  A    between atoms: C_14  and  C_18 
REMARK   16  A    between atoms: C_18  and  C_20 
ROOT
HETATM    1  O   UNL     1      33.120   5.291  -8.441  1.00  0.00    -0.776 OA
HETATM    2  H   UNL     1      32.773   5.362  -9.342  1.00  0.00     0.167 HD
ENDROOT
BRANCH   1   3
HETATM    3  C   UNL     1      32.335   4.912  -7.411  1.00  0.00     0.139 C 
HETATM    4  O   UNL     1      32.774   4.147  -6.563  1.00  0.00    -0.650 OA
BRANCH   3   5
HETATM    5  C   UNL     1      30.928   5.444  -7.330  1.00  0.00     0.110 C 
BRANCH   5   6
HETATM    6  C   UNL     1      30.524   5.867  -5.911  1.00  0.00     0.010 C 
BRANCH   6   7
HETATM    7  C   UNL     1      30.915   7.325  -5.641  1.00  0.00     0.001 C 
BRANCH   7   8
HETATM    8  C   UNL     1      32.217   7.402  -4.836  1.00  0.00     0.000 C 
BRANCH   8   9
HETATM    9  C   UNL     1      33.322   8.097  -5.641  1.00  0.00     0.000 C 
BRANCH   9  10
HETATM   10  C   UNL     1      32.721   8.970  -6.747  1.00  0.00     0.004 C 
BRANCH  10  11
HETATM   11  C   UNL     1      33.368   8.676  -8.104  1.00  0.00     0.027 C 
BRANCH  11  12
HETATM   12  C   UNL     1      32.865   9.668  -9.125  1.00  0.00    -0.031 C 
HETATM   13  C   UNL     1      31.791   9.525  -9.927  1.00  0.00    -0.031 C 
BRANCH  13  14
HETATM   14  C   UNL     1      30.853   8.339  -9.993  1.00  0.00     0.027 C 
BRANCH  14  15
HETATM   15  C   UNL     1      31.361   7.283 -10.992  1.00  0.00     0.004 C 
BRANCH  15  16
HETATM   16  C   UNL     1      30.633   5.926 -10.907  1.00  0.00     0.000 C 
BRANCH  16  17
HETATM   17  C   UNL     1      31.134   4.905 -11.942  1.00  0.00     0.000 C 
BRANCH  17  18
HETATM   18  C   UNL     1      32.490   5.326 -12.524  1.00  0.00     0.000 C 
BRANCH  18  19
HETATM   19  C   UNL     1      32.452   5.334 -14.056  1.00  0.00    -0.000 C 
BRANCH  19  20
HETATM   20  C   UNL     1      31.021   5.520 -14.572  1.00  0.00    -0.005 C 
HETATM   21  C   UNL     1      30.941   6.671 -15.570  1.00  0.00     0.005 C 
ENDBRANCH  19  20
ENDBRANCH  18  19
ENDBRANCH  17  18
ENDBRANCH  16  17
ENDBRANCH  15  16
ENDBRANCH  14  15
ENDBRANCH  13  14
ENDBRANCH  11  12
ENDBRANCH  10  11
ENDBRANCH   9  10
ENDBRANCH   8   9
ENDBRANCH   7   8
ENDBRANCH   6   7
ENDBRANCH   5   6
ENDBRANCH   3   5
ENDBRANCH   1   3
TORSDOF 16
ENDMDL
MODEL 6
REMARK VINA RESULT:      -3.9      2.090      4.170
REMARK  16 active torsions:
REMARK  status: ('A' for Active; 'I' for Inactive)
REMARK    1  A    between atoms: O_1  and  C_20 
REMARK    2  A    between atoms: C_3  and  C_4 
REMARK    3  A    between atoms: C_3  and  C_5 
REMARK    4  A    between atoms: C_4  and  C_8 
REMARK    5  A    between atoms: C_5  and  C_11 
REMARK    6  A    between atoms: C_6  and  C_7 
REMARK    7  A    between atoms: C_6  and  C_9 
REMARK    8  A    between atoms: C_7  and  C_10 
REMARK    9  A    between atoms: C_8  and  C_12 
REMARK   10  A    between atoms: C_9  and  C_13 
REMARK   11  A    between atoms: C_10  and  C_14 
REMARK   12  A    between atoms: C_11  and  C_15 
REMARK   13  A    between atoms: C_12  and  C_16 
REMARK   14  A    between atoms: C_13  and  C_17 
REMARK   15  A    between atoms: C_14  and  C_18 
REMARK   16  A    between atoms: C_18  and  C_20 
ROOT
HETATM    1  O   UNL     1      32.200   7.687 -12.283  1.00  0.00    -0.776 OA
HETATM    2  H   UNL     1      32.883   7.799 -12.959  1.00  0.00     0.167 HD
ENDROOT
BRANCH   1   3
HETATM    3  C   UNL     1      31.281   6.701 -12.366  1.00  0.00     0.139 C 
HETATM    4  O   UNL     1      30.153   6.885 -11.930  1.00  0.00    -0.650 OA
BRANCH   3   5
HETATM    5  C   UNL     1      31.670   5.390 -12.997  1.00  0.00     0.110 C 
BRANCH   5   6
HETATM    6  C   UNL     1      31.647   5.429 -14.531  1.00  0.00     0.010 C 
BRANCH   6   7
HETATM    7  C   UNL     1      32.882   6.152 -15.082  1.00  0.00     0.001 C 
BRANCH   7   8
HETATM    8  C   UNL     1      32.888   6.136 -16.614  1.00  0.00     0.000 C 
BRANCH   8   9
HETATM    9  C   UNL     1      31.605   6.760 -17.177  1.00  0.00     0.000 C 
BRANCH   9  10
HETATM   10  C   UNL     1      31.935   7.849 -18.203  1.00  0.00     0.004 C 
BRANCH  10  11
HETATM   11  C   UNL     1      30.672   8.364 -18.897  1.00  0.00     0.027 C 
BRANCH  11  12
HETATM   12  C   UNL     1      30.933   8.499 -20.378  1.00  0.00    -0.031 C 
HETATM   13  C   UNL     1      30.770   7.545 -21.316  1.00  0.00    -0.031 C 
BRANCH  13  14
HETATM   14  C   UNL     1      30.298   6.123 -21.099  1.00  0.00     0.027 C 
BRANCH  14  15
HETATM   15  C   UNL     1      31.480   5.183 -20.801  1.00  0.00     0.004 C 
BRANCH  15  16
HETATM   16  C   UNL     1      32.814   5.616 -21.443  1.00  0.00     0.000 C 
BRANCH  16  17
HETATM   17  C   UNL     1      33.955   5.772 -20.424  1.00  0.00     0.000 C 
BRANCH  17  18
HETATM   18  C   UNL     1      34.535   7.192 -20.455  1.00  0.00     0.000 C 
BRANCH  18  19
HETATM   19  C   UNL     1      34.242   7.875 -21.796  1.00  0.00    -0.000 C 
BRANCH  19  20
HETATM   20  C   UNL     1      34.441   9.392 -21.697  1.00  0.00    -0.005 C 
HETATM   21  C   UNL     1      34.333   9.869 -20.252  1.00  0.00     0.005 C 
ENDBRANCH  19  20
ENDBRANCH  18  19
ENDBRANCH  17  18
ENDBRANCH  16  17
ENDBRANCH  15  16
ENDBRANCH  14  15
ENDBRANCH  13  14
ENDBRANCH  11  12
ENDBRANCH  10  11
ENDBRANCH   9  10
ENDBRANCH   8   9
ENDBRANCH   7   8
ENDBRANCH   6   7
ENDBRANCH   5   6
ENDBRANCH   3   5
ENDBRANCH   1   3
TORSDOF 16
ENDMDL
MODEL 7
REMARK VINA RESULT:      -3.9      4.257      6.663
REMARK  16 active torsions:
REMARK  status: ('A' for Active; 'I' for Inactive)
REMARK    1  A    between atoms: O_1  and  C_20 
REMARK    2  A    between atoms: C_3  and  C_4 
REMARK    3  A    between atoms: C_3  and  C_5 
REMARK    4  A    between atoms: C_4  and  C_8 
REMARK    5  A    between atoms: C_5  and  C_11 
REMARK    6  A    between atoms: C_6  and  C_7 
REMARK    7  A    between atoms: C_6  and  C_9 
REMARK    8  A    between atoms: C_7  and  C_10 
REMARK    9  A    between atoms: C_8  and  C_12 
REMARK   10  A    between atoms: C_9  and  C_13 
REMARK   11  A    between atoms: C_10  and  C_14 
REMARK   12  A    between atoms: C_11  and  C_15 
REMARK   13  A    between atoms: C_12  and  C_16 
REMARK   14  A    between atoms: C_13  and  C_17 
REMARK   15  A    between atoms: C_14  and  C_18 
REMARK   16  A    between atoms: C_18  and  C_20 
ROOT
HETATM    1  O   UNL     1      33.489   5.959  -5.176  1.00  0.00    -0.776 OA
HETATM    2  H   UNL     1      33.313   6.353  -4.310  1.00  0.00     0.167 HD
ENDROOT
BRANCH   1   3
HETATM    3  C   UNL     1      32.587   5.160  -5.783  1.00  0.00     0.139 C 
HETATM    4  O   UNL     1      32.971   4.246  -6.501  1.00  0.00    -0.650 OA
BRANCH   3   5
HETATM    5  C   UNL     1      31.119   5.413  -5.561  1.00  0.00     0.110 C 
BRANCH   5   6
HETATM    6  C   UNL     1      30.354   5.705  -6.859  1.00  0.00     0.010 C 
BRANCH   6   7
HETATM    7  C   UNL     1      30.792   7.045  -7.465  1.00  0.00     0.001 C 
BRANCH   7   8
HETATM    8  C   UNL     1      31.060   6.904  -8.967  1.00  0.00     0.000 C 
BRANCH   8   9
HETATM    9  C   UNL     1      31.491   5.475  -9.319  1.00  0.00     0.000 C 
BRANCH   9  10
HETATM   10  C   UNL     1      32.706   5.488 -10.252  1.00  0.00     0.004 C 
BRANCH  10  11
HETATM   11  C   UNL     1      32.464   4.630 -11.497  1.00  0.00     0.027 C 
BRANCH  11  12
HETATM   12  C   UNL     1      31.287   5.181 -12.265  1.00  0.00    -0.031 C 
HETATM   13  C   UNL     1      31.259   6.317 -12.991  1.00  0.00    -0.031 C 
BRANCH  13  14
HETATM   14  C   UNL     1      32.394   7.299 -13.194  1.00  0.00     0.027 C 
BRANCH  14  15
HETATM   15  C   UNL     1      31.860   8.718 -13.461  1.00  0.00     0.004 C 
BRANCH  15  16
HETATM   16  C   UNL     1      30.468   8.760 -14.122  1.00  0.00     0.000 C 
BRANCH  16  17
HETATM   17  C   UNL     1      30.136  10.123 -14.751  1.00  0.00     0.000 C 
BRANCH  17  18
HETATM   18  C   UNL     1      30.528  11.274 -13.815  1.00  0.00     0.000 C 
BRANCH  18  19
HETATM   19  C   UNL     1      29.398  11.590 -12.829  1.00  0.00    -0.000 C 
BRANCH  19  20
HETATM   20  C   UNL     1      29.771  12.766 -11.920  1.00  0.00    -0.005 C 
HETATM   21  C   UNL     1      28.552  13.287 -11.164  1.00  0.00     0.005 C 
ENDBRANCH  19  20
ENDBRANCH  18  19
ENDBRANCH  17  18
ENDBRANCH  16  17
ENDBRANCH  15  16
ENDBRANCH  14  15
ENDBRANCH  13  14
ENDBRANCH  11  12
ENDBRANCH  10  11
ENDBRANCH   9  10
ENDBRANCH   8   9
ENDBRANCH   7   8
ENDBRANCH   6   7
ENDBRANCH   5   6
ENDBRANCH   3   5
ENDBRANCH   1   3
TORSDOF 16
ENDMDL
MODEL 8
REMARK VINA RESULT:      -3.9      4.675      7.747
REMARK  16 active torsions:
REMARK  status: ('A' for Active; 'I' for Inactive)
REMARK    1  A    between atoms: O_1  and  C_20 
REMARK    2  A    between atoms: C_3  and  C_4 
REMARK    3  A    between atoms: C_3  and  C_5 
REMARK    4  A    between atoms: C_4  and  C_8 
REMARK    5  A    between atoms: C_5  and  C_11 
REMARK    6  A    between atoms: C_6  and  C_7 
REMARK    7  A    between atoms: C_6  and  C_9 
REMARK    8  A    between atoms: C_7  and  C_10 
REMARK    9  A    between atoms: C_8  and  C_12 
REMARK   10  A    between atoms: C_9  and  C_13 
REMARK   11  A    between atoms: C_10  and  C_14 
REMARK   12  A    between atoms: C_11  and  C_15 
REMARK   13  A    between atoms: C_12  and  C_16 
REMARK   14  A    between atoms: C_13  and  C_17 
REMARK   15  A    between atoms: C_14  and  C_18 
REMARK   16  A    between atoms: C_18  and  C_20 
ROOT
HETATM    1  O   UNL     1      33.398   5.856  -5.089  1.00  0.00    -0.776 OA
HETATM    2  H   UNL     1      33.201   6.207  -4.208  1.00  0.00     0.167 HD
ENDROOT
BRANCH   1   3
HETATM    3  C   UNL     1      32.493   5.125  -5.774  1.00  0.00     0.139 C 
HETATM    4  O   UNL     1      32.874   4.239  -6.527  1.00  0.00    -0.650 OA
BRANCH   3   5
HETATM    5  C   UNL     1      31.028   5.421  -5.595  1.00  0.00     0.110 C 
BRANCH   5   6
HETATM    6  C   UNL     1      30.335   5.847  -6.897  1.00  0.00     0.010 C 
BRANCH   6   7
HETATM    7  C   UNL     1      30.933   7.152  -7.437  1.00  0.00     0.001 C 
BRANCH   7   8
HETATM    8  C   UNL     1      31.205   7.048  -8.942  1.00  0.00     0.000 C 
BRANCH   8   9
HETATM    9  C   UNL     1      31.295   5.584  -9.386  1.00  0.00     0.000 C 
BRANCH   9  10
HETATM   10  C   UNL     1      32.588   5.332 -10.168  1.00  0.00     0.004 C 
BRANCH  10  11
HETATM   11  C   UNL     1      32.306   4.658 -11.513  1.00  0.00     0.027 C 
BRANCH  11  12
HETATM   12  C   UNL     1      31.095   5.296 -12.150  1.00  0.00    -0.031 C 
HETATM   13  C   UNL     1      31.064   6.452 -12.843  1.00  0.00    -0.031 C 
BRANCH  13  14
HETATM   14  C   UNL     1      32.229   7.374 -13.133  1.00  0.00     0.027 C 
BRANCH  14  15
HETATM   15  C   UNL     1      32.154   8.652 -12.278  1.00  0.00     0.004 C 
BRANCH  15  16
HETATM   16  C   UNL     1      30.722   9.090 -11.913  1.00  0.00     0.000 C 
BRANCH  16  17
HETATM   17  C   UNL     1      30.625  10.572 -11.512  1.00  0.00     0.000 C 
BRANCH  17  18
HETATM   18  C   UNL     1      31.774  10.968 -10.577  1.00  0.00     0.000 C 
BRANCH  18  19
HETATM   19  C   UNL     1      31.366  10.809  -9.107  1.00  0.00    -0.000 C 
BRANCH  19  20
HETATM   20  C   UNL     1      32.585  10.514  -8.225  1.00  0.00    -0.005 C 
HETATM   21  C   UNL     1      32.226  10.596  -6.745  1.00  0.00     0.005 C 
ENDBRANCH  19  20
ENDBRANCH  18  19
ENDBRANCH  17  18
ENDBRANCH  16  17
ENDBRANCH  15  16
ENDBRANCH  14  15
ENDBRANCH  13  14
ENDBRANCH  11  12
ENDBRANCH  10  11
ENDBRANCH   9  10
ENDBRANCH   8   9
ENDBRANCH   7   8
ENDBRANCH   6   7
ENDBRANCH   5   6
ENDBRANCH   3   5
ENDBRANCH   1   3
TORSDOF 16
ENDMDL
MODEL 9
REMARK VINA RESULT:      -3.8      2.831      4.364
REMARK  16 active torsions:
REMARK  status: ('A' for Active; 'I' for Inactive)
REMARK    1  A    between atoms: O_1  and  C_20 
REMARK    2  A    between atoms: C_3  and  C_4 
REMARK    3  A    between atoms: C_3  and  C_5 
REMARK    4  A    between atoms: C_4  and  C_8 
REMARK    5  A    between atoms: C_5  and  C_11 
REMARK    6  A    between atoms: C_6  and  C_7 
REMARK    7  A    between atoms: C_6  and  C_9 
REMARK    8  A    between atoms: C_7  and  C_10 
REMARK    9  A    between atoms: C_8  and  C_12 
REMARK   10  A    between atoms: C_9  and  C_13 
REMARK   11  A    between atoms: C_10  and  C_14 
REMARK   12  A    between atoms: C_11  and  C_15 
REMARK   13  A    between atoms: C_12  and  C_16 
REMARK   14  A    between atoms: C_13  and  C_17 
REMARK   15  A    between atoms: C_14  and  C_18 
REMARK   16  A    between atoms: C_18  and  C_20 
ROOT
HETATM    1  O   UNL     1      34.174   5.585  -5.815  1.00  0.00    -0.776 OA
HETATM    2  H   UNL     1      34.887   6.022  -6.302  1.00  0.00     0.167 HD
ENDROOT
BRANCH   1   3
HETATM    3  C   UNL     1      32.976   5.342  -6.387  1.00  0.00     0.139 C 
HETATM    4  O   UNL     1      32.049   4.928  -5.703  1.00  0.00    -0.650 OA
BRANCH   3   5
HETATM    5  C   UNL     1      32.806   5.589  -7.863  1.00  0.00     0.110 C 
BRANCH   5   6
HETATM    6  C   UNL     1      31.411   5.211  -8.381  1.00  0.00     0.010 C 
BRANCH   6   7
HETATM    7  C   UNL     1      31.071   5.988  -9.659  1.00  0.00     0.001 C 
BRANCH   7   8
HETATM    8  C   UNL     1      31.270   5.113 -10.901  1.00  0.00     0.000 C 
BRANCH   8   9
HETATM    9  C   UNL     1      30.263   5.474 -11.998  1.00  0.00     0.000 C 
BRANCH   9  10
HETATM   10  C   UNL     1      30.966   5.635 -13.350  1.00  0.00     0.004 C 
BRANCH  10  11
HETATM   11  C   UNL     1      32.474   5.403 -13.226  1.00  0.00     0.027 C 
BRANCH  11  12
HETATM   12  C   UNL     1      33.196   6.229 -14.264  1.00  0.00    -0.031 C 
HETATM   13  C   UNL     1      33.351   5.927 -15.569  1.00  0.00    -0.031 C 
BRANCH  13  14
HETATM   14  C   UNL     1      32.846   4.693 -16.286  1.00  0.00     0.027 C 
BRANCH  14  15
HETATM   15  C   UNL     1      31.958   5.071 -17.485  1.00  0.00     0.004 C 
BRANCH  15  16
HETATM   16  C   UNL     1      31.567   6.562 -17.543  1.00  0.00     0.000 C 
BRANCH  16  17
HETATM   17  C   UNL     1      32.220   7.315 -18.714  1.00  0.00     0.000 C 
BRANCH  17  18
HETATM   18  C   UNL     1      32.079   8.833 -18.542  1.00  0.00     0.000 C 
BRANCH  18  19
HETATM   19  C   UNL     1      32.882   9.326 -17.332  1.00  0.00    -0.000 C 
BRANCH  19  20
HETATM   20  C   UNL     1      34.357   8.924 -17.447  1.00  0.00    -0.005 C 
HETATM   21  C   UNL     1      35.083   9.110 -16.119  1.00  0.00     0.005 C 
ENDBRANCH  19  20
ENDBRANCH  18  19
ENDBRANCH  17  18
ENDBRANCH  16  17
ENDBRANCH  15  16
ENDBRANCH  14  15
ENDBRANCH  13  14
ENDBRANCH  11  12
ENDBRANCH  10  11
ENDBRANCH   9  10
ENDBRANCH   8   9
ENDBRANCH   7   8
ENDBRANCH   6   7
ENDBRANCH   5   6
ENDBRANCH   3   5
ENDBRANCH   1   3
TORSDOF 16
ENDMDL
MODEL 10
REMARK VINA RESULT:      -3.7      4.437      9.064
REMARK  16 active torsions:
REMARK  status: ('A' for Active; 'I' for Inactive)
REMARK    1  A    between atoms: O_1  and  C_20 
REMARK    2  A    between atoms: C_3  and  C_4 
REMARK    3  A    between atoms: C_3  and  C_5 
REMARK    4  A    between atoms: C_4  and  C_8 
REMARK    5  A    between atoms: C_5  and  C_11 
REMARK    6  A    between atoms: C_6  and  C_7 
REMARK    7  A    between atoms: C_6  and  C_9 
REMARK    8  A    between atoms: C_7  and  C_10 
REMARK    9  A    between atoms: C_8  and  C_12 
REMARK   10  A    between atoms: C_9  and  C_13 
REMARK   11  A    between atoms: C_10  and  C_14 
REMARK   12  A    between atoms: C_11  and  C_15 
REMARK   13  A    between atoms: C_12  and  C_16 
REMARK   14  A    between atoms: C_13  and  C_17 
REMARK   15  A    between atoms: C_14  and  C_18 
REMARK   16  A    between atoms: C_18  and  C_20 
ROOT
HETATM    1  O   UNL     1      30.536   5.607 -11.557  1.00  0.00    -0.776 OA
HETATM    2  H   UNL     1      29.736   5.065 -11.501  1.00  0.00     0.167 HD
ENDROOT
BRANCH   1   3
HETATM    3  C   UNL     1      31.088   5.930 -12.745  1.00  0.00     0.139 C 
HETATM    4  O   UNL     1      31.189   5.079 -13.619  1.00  0.00    -0.650 OA
BRANCH   3   5
HETATM    5  C   UNL     1      31.570   7.339 -12.968  1.00  0.00     0.110 C 
BRANCH   5   6
HETATM    6  C   UNL     1      33.099   7.466 -12.930  1.00  0.00     0.010 C 
BRANCH   6   7
HETATM    7  C   UNL     1      33.637   7.208 -11.516  1.00  0.00     0.001 C 
BRANCH   7   8
HETATM    8  C   UNL     1      34.761   8.190 -11.171  1.00  0.00     0.000 C 
BRANCH   8   9
HETATM    9  C   UNL     1      34.212   9.608 -10.971  1.00  0.00     0.000 C 
BRANCH   9  10
HETATM   10  C   UNL     1      33.796   9.829  -9.513  1.00  0.00     0.004 C 
BRANCH  10  11
HETATM   11  C   UNL     1      32.440  10.533  -9.420  1.00  0.00     0.027 C 
BRANCH  11  12
HETATM   12  C   UNL     1      31.382   9.673 -10.070  1.00  0.00    -0.031 C 
HETATM   13  C   UNL     1      30.755   8.614  -9.519  1.00  0.00    -0.031 C 
BRANCH  13  14
HETATM   14  C   UNL     1      30.973   8.043  -8.134  1.00  0.00     0.027 C 
BRANCH  14  15
HETATM   15  C   UNL     1      31.211   6.523  -8.191  1.00  0.00     0.004 C 
BRANCH  15  16
HETATM   16  C   UNL     1      32.692   6.106  -8.081  1.00  0.00     0.000 C 
BRANCH  16  17
HETATM   17  C   UNL     1      33.571   7.167  -7.398  1.00  0.00     0.000 C 
BRANCH  17  18
HETATM   18  C   UNL     1      33.867   6.785  -5.941  1.00  0.00     0.000 C 
BRANCH  18  19
HETATM   19  C   UNL     1      33.392   5.359  -5.640  1.00  0.00    -0.000 C 
BRANCH  19  20
HETATM   20  C   UNL     1      32.416   5.341  -4.457  1.00  0.00    -0.005 C 
HETATM   21  C   UNL     1      31.569   6.609  -4.422  1.00  0.00     0.005 C 
ENDBRANCH  19  20
ENDBRANCH  18  19
ENDBRANCH  17  18
ENDBRANCH  16  17
ENDBRANCH  15  16
ENDBRANCH  14  15
ENDBRANCH  13  14
ENDBRANCH  11  12
ENDBRANCH  10  11
ENDBRANCH   9  10
ENDBRANCH   8   9
ENDBRANCH   7   8
ENDBRANCH   6   7
ENDBRANCH   5   6
ENDBRANCH   3   5
ENDBRANCH   1   3
TORSDOF 16
ENDMDL
MODEL 11
REMARK VINA RESULT:      -3.6     45.986     47.301
REMARK  16 active torsions:
REMARK  status: ('A' for Active; 'I' for Inactive)
REMARK    1  A    between atoms: O_1  and  C_20 
REMARK    2  A    between atoms: C_3  and  C_4 
REMARK    3  A    between atoms: C_3  and  C_5 
REMARK    4  A    between atoms: C_4  and  C_8 
REMARK    5  A    between atoms: C_5  and  C_11 
REMARK    6  A    between atoms: C_6  and  C_7 
REMARK    7  A    between atoms: C_6  and  C_9 
REMARK    8  A    between atoms: C_7  and  C_10 
REMARK    9  A    between atoms: C_8  and  C_12 
REMARK   10  A    between atoms: C_9  and  C_13 
REMARK   11  A    between atoms: C_10  and  C_14 
REMARK   12  A    between atoms: C_11  and  C_15 
REMARK   13  A    between atoms: C_12  and  C_16 
REMARK   14  A    between atoms: C_13  and  C_17 
REMARK   15  A    between atoms: C_14  and  C_18 
REMARK   16  A    between atoms: C_18  and  C_20 
ROOT
HETATM    1  O   UNL     1     -13.841   8.033  -9.502  1.00  0.00    -0.776 OA
HETATM    2  H   UNL     1     -13.565   7.171  -9.843  1.00  0.00     0.167 HD
ENDROOT
BRANCH   1   3
HETATM    3  C   UNL     1     -13.222   8.605  -8.447  1.00  0.00     0.139 C 
HETATM    4  O   UNL     1     -12.637   7.903  -7.633  1.00  0.00    -0.650 OA
BRANCH   3   5
HETATM    5  C   UNL     1     -13.266  10.103  -8.298  1.00  0.00     0.110 C 
BRANCH   5   6
HETATM    6  C   UNL     1     -12.673  10.847  -9.502  1.00  0.00     0.010 C 
BRANCH   6   7
HETATM    7  C   UNL     1     -13.731  11.728 -10.179  1.00  0.00     0.001 C 
BRANCH   7   8
HETATM    8  C   UNL     1     -15.131  11.412  -9.641  1.00  0.00     0.000 C 
BRANCH   8   9
HETATM    9  C   UNL     1     -16.068  10.967 -10.769  1.00  0.00     0.000 C 
BRANCH   9  10
HETATM   10  C   UNL     1     -15.306  10.847 -12.093  1.00  0.00     0.004 C 
BRANCH  10  11
HETATM   11  C   UNL     1     -15.263   9.397 -12.583  1.00  0.00     0.027 C 
BRANCH  11  12
HETATM   12  C   UNL     1     -13.834   9.009 -12.877  1.00  0.00    -0.031 C 
HETATM   13  C   UNL     1     -13.316   8.692 -14.081  1.00  0.00    -0.031 C 
BRANCH  13  14
HETATM   14  C   UNL     1     -14.048   8.644 -15.405  1.00  0.00     0.027 C 
BRANCH  14  15
HETATM   15  C   UNL     1     -14.061  10.025 -16.084  1.00  0.00     0.004 C 
BRANCH  15  16
HETATM   16  C   UNL     1     -15.456  10.678 -16.169  1.00  0.00     0.000 C 
BRANCH  16  17
HETATM   17  C   UNL     1     -15.574  11.966 -15.336  1.00  0.00     0.000 C 
BRANCH  17  18
HETATM   18  C   UNL     1     -17.034  12.251 -14.963  1.00  0.00     0.000 C 
BRANCH  18  19
HETATM   19  C   UNL     1     -17.889  10.984 -15.082  1.00  0.00    -0.000 C 
BRANCH  19  20
HETATM   20  C   UNL     1     -18.627  10.691 -13.770  1.00  0.00    -0.005 C 
HETATM   21  C   UNL     1     -18.923  11.977 -13.005  1.00  0.00     0.005 C 
ENDBRANCH  19  20
ENDBRANCH  18  19
ENDBRANCH  17  18
ENDBRANCH  16  17
ENDBRANCH  15  16
ENDBRANCH  14  15
ENDBRANCH  13  14
ENDBRANCH  11  12
ENDBRANCH  10  11
ENDBRANCH   9  10
ENDBRANCH   8   9
ENDBRANCH   7   8
ENDBRANCH   6   7
ENDBRANCH   5   6
ENDBRANCH   3   5
ENDBRANCH   1   3
TORSDOF 16
ENDMDL
MODEL 12
REMARK VINA RESULT:      -3.6      6.006      9.605
REMARK  16 active torsions:
REMARK  status: ('A' for Active; 'I' for Inactive)
REMARK    1  A    between atoms: O_1  and  C_20 
REMARK    2  A    between atoms: C_3  and  C_4 
REMARK    3  A    between atoms: C_3  and  C_5 
REMARK    4  A    between atoms: C_4  and  C_8 
REMARK    5  A    between atoms: C_5  and  C_11 
REMARK    6  A    between atoms: C_6  and  C_7 
REMARK    7  A    between atoms: C_6  and  C_9 
REMARK    8  A    between atoms: C_7  and  C_10 
REMARK    9  A    between atoms: C_8  and  C_12 
REMARK   10  A    between atoms: C_9  and  C_13 
REMARK   11  A    between atoms: C_10  and  C_14 
REMARK   12  A    between atoms: C_11  and  C_15 
REMARK   13  A    between atoms: C_12  and  C_16 
REMARK   14  A    between atoms: C_13  and  C_17 
REMARK   15  A    between atoms: C_14  and  C_18 
REMARK   16  A    between atoms: C_18  and  C_20 
ROOT
HETATM    1  O   UNL     1      28.933  12.290  -9.000  1.00  0.00    -0.776 OA
HETATM    2  H   UNL     1      29.099  12.731  -9.846  1.00  0.00     0.167 HD
ENDROOT
BRANCH   1   3
HETATM    3  C   UNL     1      28.988  10.947  -8.882  1.00  0.00     0.139 C 
HETATM    4  O   UNL     1      28.853  10.428  -7.782  1.00  0.00    -0.650 OA
BRANCH   3   5
HETATM    5  C   UNL     1      29.216  10.113 -10.115  1.00  0.00     0.110 C 
BRANCH   5   6
HETATM    6  C   UNL     1      30.225   8.978  -9.898  1.00  0.00     0.010 C 
BRANCH   6   7
HETATM    7  C   UNL     1      31.457   9.476  -9.131  1.00  0.00     0.001 C 
BRANCH   7   8
HETATM    8  C   UNL     1      32.703   9.450 -10.022  1.00  0.00     0.000 C 
BRANCH   8   9
HETATM    9  C   UNL     1      32.369   8.926 -11.423  1.00  0.00     0.000 C 
BRANCH   9  10
HETATM   10  C   UNL     1      33.419   7.912 -11.889  1.00  0.00     0.004 C 
BRANCH  10  11
HETATM   11  C   UNL     1      34.039   7.165 -10.705  1.00  0.00     0.027 C 
BRANCH  11  12
HETATM   12  C   UNL     1      33.816   5.682 -10.876  1.00  0.00    -0.031 C 
HETATM   13  C   UNL     1      32.663   5.012 -10.680  1.00  0.00    -0.031 C 
BRANCH  13  14
HETATM   14  C   UNL     1      31.335   5.590 -10.239  1.00  0.00     0.027 C 
BRANCH  14  15
HETATM   15  C   UNL     1      31.069   5.301  -8.751  1.00  0.00     0.004 C 
BRANCH  15  16
HETATM   16  C   UNL     1      32.057   5.983  -7.783  1.00  0.00     0.000 C 
BRANCH  16  17
HETATM   17  C   UNL     1      32.438   5.100  -6.583  1.00  0.00     0.000 C 
BRANCH  17  18
HETATM   18  C   UNL     1      31.443   5.278  -5.429  1.00  0.00     0.000 C 
BRANCH  18  19
HETATM   19  C   UNL     1      31.476   6.713  -4.891  1.00  0.00    -0.000 C 
BRANCH  19  20
HETATM   20  C   UNL     1      31.984   6.750  -3.445  1.00  0.00    -0.005 C 
HETATM   21  C   UNL     1      30.839   6.984  -2.465  1.00  0.00     0.005 C 
ENDBRANCH  19  20
ENDBRANCH  18  19
ENDBRANCH  17  18
ENDBRANCH  16  17
ENDBRANCH  15  16
ENDBRANCH  14  15
ENDBRANCH  13  14
ENDBRANCH  11  12
ENDBRANCH  10  11
ENDBRANCH   9  10
ENDBRANCH   8   9
ENDBRANCH   7   8
ENDBRANCH   6   7
ENDBRANCH   5   6
ENDBRANCH   3   5
ENDBRANCH   1   3
TORSDOF 16
ENDMDL
MODEL 13
REMARK VINA RESULT:      -3.6     48.557     49.922
REMARK  16 active torsions:
REMARK  status: ('A' for Active; 'I' for Inactive)
REMARK    1  A    between atoms: O_1  and  C_20 
REMARK    2  A    between atoms: C_3  and  C_4 
REMARK    3  A    between atoms: C_3  and  C_5 
REMARK    4  A    between atoms: C_4  and  C_8 
REMARK    5  A    between atoms: C_5  and  C_11 
REMARK    6  A    between atoms: C_6  and  C_7 
REMARK    7  A    between atoms: C_6  and  C_9 
REMARK    8  A    between atoms: C_7  and  C_10 
REMARK    9  A    between atoms: C_8  and  C_12 
REMARK   10  A    between atoms: C_9  and  C_13 
REMARK   11  A    between atoms: C_10  and  C_14 
REMARK   12  A    between atoms: C_11  and  C_15 
REMARK   13  A    between atoms: C_12  and  C_16 
REMARK   14  A    between atoms: C_13  and  C_17 
REMARK   15  A    between atoms: C_14  and  C_18 
REMARK   16  A    between atoms: C_18  and  C_20 
ROOT
HETATM    1  O   UNL     1     -13.908   8.054  -9.716  1.00  0.00    -0.776 OA
HETATM    2  H   UNL     1     -13.561   7.170  -9.904  1.00  0.00     0.167 HD
ENDROOT
BRANCH   1   3
HETATM    3  C   UNL     1     -13.410   8.808  -8.713  1.00  0.00     0.139 C 
HETATM    4  O   UNL     1     -12.758   8.279  -7.822  1.00  0.00    -0.650 OA
BRANCH   3   5
HETATM    5  C   UNL     1     -13.669  10.291  -8.715  1.00  0.00     0.110 C 
BRANCH   5   6
HETATM    6  C   UNL     1     -13.506  10.930 -10.101  1.00  0.00     0.010 C 
BRANCH   6   7
HETATM    7  C   UNL     1     -14.741  11.762 -10.472  1.00  0.00     0.001 C 
BRANCH   7   8
HETATM    8  C   UNL     1     -15.882  11.518  -9.479  1.00  0.00     0.000 C 
BRANCH   8   9
HETATM    9  C   UNL     1     -17.070  10.831 -10.162  1.00  0.00     0.000 C 
BRANCH   9  10
HETATM   10  C   UNL     1     -17.637  11.711 -11.281  1.00  0.00     0.004 C 
BRANCH  10  11
HETATM   11  C   UNL     1     -17.681  10.960 -12.615  1.00  0.00     0.027 C 
BRANCH  11  12
HETATM   12  C   UNL     1     -16.740  11.621 -13.594  1.00  0.00    -0.031 C 
HETATM   13  C   UNL     1     -17.058  12.126 -14.802  1.00  0.00    -0.031 C 
BRANCH  13  14
HETATM   14  C   UNL     1     -18.424  12.139 -15.455  1.00  0.00     0.027 C 
BRANCH  14  15
HETATM   15  C   UNL     1     -19.261  13.336 -14.971  1.00  0.00     0.004 C 
BRANCH  15  16
HETATM   16  C   UNL     1     -20.489  12.951 -14.121  1.00  0.00     0.000 C 
BRANCH  16  17
HETATM   17  C   UNL     1     -20.452  13.540 -12.701  1.00  0.00     0.000 C 
BRANCH  17  18
HETATM   18  C   UNL     1     -21.365  12.752 -11.752  1.00  0.00     0.000 C 
BRANCH  18  19
HETATM   19  C   UNL     1     -21.700  11.372 -12.331  1.00  0.00    -0.000 C 
BRANCH  19  20
HETATM   20  C   UNL     1     -21.102  10.252 -11.470  1.00  0.00    -0.005 C 
HETATM   21  C   UNL     1     -20.989  10.680 -10.011  1.00  0.00     0.005 C 
ENDBRANCH  19  20
ENDBRANCH  18  19
ENDBRANCH  17  18
ENDBRANCH  16  17
ENDBRANCH  15  16
ENDBRANCH  14  15
ENDBRANCH  13  14
ENDBRANCH  11  12
ENDBRANCH  10  11
ENDBRANCH   9  10
ENDBRANCH   8   9
ENDBRANCH   7   8
ENDBRANCH   6   7
ENDBRANCH   5   6
ENDBRANCH   3   5
ENDBRANCH   1   3
TORSDOF 16
ENDMDL
MODEL 14
REMARK VINA RESULT:      -3.6      4.697      7.732
REMARK  16 active torsions:
REMARK  status: ('A' for Active; 'I' for Inactive)
REMARK    1  A    between atoms: O_1  and  C_20 
REMARK    2  A    between atoms: C_3  and  C_4 
REMARK    3  A    between atoms: C_3  and  C_5 
REMARK    4  A    between atoms: C_4  and  C_8 
REMARK    5  A    between atoms: C_5  and  C_11 
REMARK    6  A    between atoms: C_6  and  C_7 
REMARK    7  A    between atoms: C_6  and  C_9 
REMARK    8  A    between atoms: C_7  and  C_10 
REMARK    9  A    between atoms: C_8  and  C_12 
REMARK   10  A    between atoms: C_9  and  C_13 
REMARK   11  A    between atoms: C_10  and  C_14 
REMARK   12  A    between atoms: C_11  and  C_15 
REMARK   13  A    between atoms: C_12  and  C_16 
REMARK   14  A    between atoms: C_13  and  C_17 
REMARK   15  A    between atoms: C_14  and  C_18 
REMARK   16  A    between atoms: C_18  and  C_20 
ROOT
HETATM    1  O   UNL     1      33.319   6.018  -5.266  1.00  0.00    -0.776 OA
HETATM    2  H   UNL     1      33.153   6.437  -4.409  1.00  0.00     0.167 HD
ENDROOT
BRANCH   1   3
HETATM    3  C   UNL     1      32.422   5.181  -5.827  1.00  0.00     0.139 C 
HETATM    4  O   UNL     1      32.811   4.198  -6.442  1.00  0.00    -0.650 OA
BRANCH   3   5
HETATM    5  C   UNL     1      30.953   5.480  -5.681  1.00  0.00     0.110 C 
BRANCH   5   6
HETATM    6  C   UNL     1      30.275   5.838  -7.011  1.00  0.00     0.010 C 
BRANCH   6   7
HETATM    7  C   UNL     1      30.931   7.070  -7.647  1.00  0.00     0.001 C 
BRANCH   7   8
HETATM    8  C   UNL     1      30.985   6.934  -9.172  1.00  0.00     0.000 C 
BRANCH   8   9
HETATM    9  C   UNL     1      30.977   5.461  -9.596  1.00  0.00     0.000 C 
BRANCH   9  10
HETATM   10  C   UNL     1      32.038   5.198 -10.668  1.00  0.00     0.004 C 
BRANCH  10  11
HETATM   11  C   UNL     1      31.399   4.936 -12.035  1.00  0.00     0.027 C 
BRANCH  11  12
HETATM   12  C   UNL     1      31.059   6.254 -12.690  1.00  0.00    -0.031 C 
HETATM   13  C   UNL     1      31.923   7.233 -13.026  1.00  0.00    -0.031 C 
BRANCH  13  14
HETATM   14  C   UNL     1      33.422   7.240 -12.816  1.00  0.00     0.027 C 
BRANCH  14  15
HETATM   15  C   UNL     1      33.881   8.531 -12.117  1.00  0.00     0.004 C 
BRANCH  15  16
HETATM   16  C   UNL     1      34.954   8.320 -11.029  1.00  0.00     0.000 C 
BRANCH  16  17
HETATM   17  C   UNL     1      34.414   8.506  -9.601  1.00  0.00     0.000 C 
BRANCH  17  18
HETATM   18  C   UNL     1      33.394   9.651  -9.540  1.00  0.00     0.000 C 
BRANCH  18  19
HETATM   19  C   UNL     1      34.096  11.002  -9.362  1.00  0.00    -0.000 C 
BRANCH  19  20
HETATM   20  C   UNL     1      33.316  12.125 -10.057  1.00  0.00    -0.005 C 
HETATM   21  C   UNL     1      34.261  13.156 -10.666  1.00  0.00     0.005 C 
ENDBRANCH  19  20
ENDBRANCH  18  19
ENDBRANCH  17  18
ENDBRANCH  16  17
ENDBRANCH  15  16
ENDBRANCH  14  15
ENDBRANCH  13  14
ENDBRANCH  11  12
ENDBRANCH  10  11
ENDBRANCH   9  10
ENDBRANCH   8   9
ENDBRANCH   7   8
ENDBRANCH   6   7
ENDBRANCH   5   6
ENDBRANCH   3   5
ENDBRANCH   1   3
TORSDOF 16
ENDMDL
MODEL 15
REMARK VINA RESULT:      -3.5      4.671      6.420
REMARK  16 active torsions:
REMARK  status: ('A' for Active; 'I' for Inactive)
REMARK    1  A    between atoms: O_1  and  C_20 
REMARK    2  A    between atoms: C_3  and  C_4 
REMARK    3  A    between atoms: C_3  and  C_5 
REMARK    4  A    between atoms: C_4  and  C_8 
REMARK    5  A    between atoms: C_5  and  C_11 
REMARK    6  A    between atoms: C_6  and  C_7 
REMARK    7  A    between atoms: C_6  and  C_9 
REMARK    8  A    between atoms: C_7  and  C_10 
REMARK    9  A    between atoms: C_8  and  C_12 
REMARK   10  A    between atoms: C_9  and  C_13 
REMARK   11  A    between atoms: C_10  and  C_14 
REMARK   12  A    between atoms: C_11  and  C_15 
REMARK   13  A    between atoms: C_12  and  C_16 
REMARK   14  A    between atoms: C_13  and  C_17 
REMARK   15  A    between atoms: C_14  and  C_18 
REMARK   16  A    between atoms: C_18  and  C_20 
ROOT
HETATM    1  O   UNL     1      30.717  12.526 -20.970  1.00  0.00    -0.776 OA
HETATM    2  H   UNL     1      31.327  11.778 -21.040  1.00  0.00     0.167 HD
ENDROOT
BRANCH   1   3
HETATM    3  C   UNL     1      29.379  12.347 -20.963  1.00  0.00     0.139 C 
HETATM    4  O   UNL     1      28.748  12.445 -22.007  1.00  0.00    -0.650 OA
BRANCH   3   5
HETATM    5  C   UNL     1      28.691  12.029 -19.661  1.00  0.00     0.110 C 
BRANCH   5   6
HETATM    6  C   UNL     1      28.840  10.560 -19.244  1.00  0.00     0.010 C 
BRANCH   6   7
HETATM    7  C   UNL     1      29.941  10.397 -18.189  1.00  0.00     0.001 C 
BRANCH   7   8
HETATM    8  C   UNL     1      30.790   9.153 -18.471  1.00  0.00     0.000 C 
BRANCH   8   9
HETATM    9  C   UNL     1      31.655   8.788 -17.259  1.00  0.00     0.000 C 
BRANCH   9  10
HETATM   10  C   UNL     1      30.779   8.395 -16.065  1.00  0.00     0.004 C 
BRANCH  10  11
HETATM   11  C   UNL     1      30.350   6.928 -16.146  1.00  0.00     0.027 C 
BRANCH  11  12
HETATM   12  C   UNL     1      31.130   6.120 -15.136  1.00  0.00    -0.031 C 
HETATM   13  C   UNL     1      32.328   5.532 -15.327  1.00  0.00    -0.031 C 
BRANCH  13  14
HETATM   14  C   UNL     1      33.157   5.539 -16.594  1.00  0.00     0.027 C 
BRANCH  14  15
HETATM   15  C   UNL     1      32.336   5.046 -17.798  1.00  0.00     0.004 C 
BRANCH  15  16
HETATM   16  C   UNL     1      32.858   5.532 -19.166  1.00  0.00     0.000 C 
BRANCH  16  17
HETATM   17  C   UNL     1      31.734   5.834 -20.171  1.00  0.00     0.000 C 
BRANCH  17  18
HETATM   18  C   UNL     1      31.859   4.954 -21.421  1.00  0.00     0.000 C 
BRANCH  18  19
HETATM   19  C   UNL     1      32.680   5.657 -22.509  1.00  0.00    -0.000 C 
BRANCH  19  20
HETATM   20  C   UNL     1      32.147   5.321 -23.907  1.00  0.00    -0.005 C 
HETATM   21  C   UNL     1      33.222   5.527 -24.970  1.00  0.00     0.005 C 
ENDBRANCH  19  20
ENDBRANCH  18  19
ENDBRANCH  17  18
ENDBRANCH  16  17
ENDBRANCH  15  16
ENDBRANCH  14  15
ENDBRANCH  13  14
ENDBRANCH  11  12
ENDBRANCH  10  11
ENDBRANCH   9  10
ENDBRANCH   8   9
ENDBRANCH   7   8
ENDBRANCH   6   7
ENDBRANCH   5   6
ENDBRANCH   3   5
ENDBRANCH   1   3
TORSDOF 16
ENDMDL
MODEL 16
REMARK VINA RESULT:      -3.5      3.872      6.684
REMARK  16 active torsions:
REMARK  status: ('A' for Active; 'I' for Inactive)
REMARK    1  A    between atoms: O_1  and  C_20 
REMARK    2  A    between atoms: C_3  and  C_4 
REMARK    3  A    between atoms: C_3  and  C_5 
REMARK    4  A    between atoms: C_4  and  C_8 
REMARK    5  A    between atoms: C_5  and  C_11 
REMARK    6  A    between atoms: C_6  and  C_7 
REMARK    7  A    between atoms: C_6  and  C_9 
REMARK    8  A    between atoms: C_7  and  C_10 
REMARK    9  A    between atoms: C_8  and  C_12 
REMARK   10  A    between atoms: C_9  and  C_13 
REMARK   11  A    between atoms: C_10  and  C_14 
REMARK   12  A    between atoms: C_11  and  C_15 
REMARK   13  A    between atoms: C_12  and  C_16 
REMARK   14  A    between atoms: C_13  and  C_17 
REMARK   15  A    between atoms: C_14  and  C_18 
REMARK   16  A    between atoms: C_18  and  C_20 
ROOT
HETATM    1  O   UNL     1      30.021   6.806 -21.423  1.00  0.00    -0.776 OA
HETATM    2  H   UNL     1      30.089   6.866 -22.386  1.00  0.00     0.167 HD
ENDROOT
BRANCH   1   3
HETATM    3  C   UNL     1      30.582   7.733 -20.617  1.00  0.00     0.139 C 
HETATM    4  O   UNL     1      30.122   8.866 -20.584  1.00  0.00    -0.650 OA
BRANCH   3   5
HETATM    5  C   UNL     1      31.768   7.347 -19.773  1.00  0.00     0.110 C 
BRANCH   5   6
HETATM    6  C   UNL     1      32.658   6.285 -20.434  1.00  0.00     0.010 C 
BRANCH   6   7
HETATM    7  C   UNL     1      34.138   6.678 -20.346  1.00  0.00     0.001 C 
BRANCH   7   8
HETATM    8  C   UNL     1      34.464   7.806 -21.331  1.00  0.00     0.000 C 
BRANCH   8   9
HETATM    9  C   UNL     1      35.248   8.929 -20.642  1.00  0.00     0.000 C 
BRANCH   9  10
HETATM   10  C   UNL     1      34.478  10.252 -20.713  1.00  0.00     0.004 C 
BRANCH  10  11
HETATM   11  C   UNL     1      33.583  10.444 -19.485  1.00  0.00     0.027 C 
BRANCH  11  12
HETATM   12  C   UNL     1      34.446  10.672 -18.267  1.00  0.00    -0.031 C 
HETATM   13  C   UNL     1      34.587   9.843 -17.213  1.00  0.00    -0.031 C 
BRANCH  13  14
HETATM   14  C   UNL     1      33.910   8.504 -17.007  1.00  0.00     0.027 C 
BRANCH  14  15
HETATM   15  C   UNL     1      34.676   7.644 -15.987  1.00  0.00     0.004 C 
BRANCH  15  16
HETATM   16  C   UNL     1      34.019   7.571 -14.594  1.00  0.00     0.000 C 
BRANCH  16  17
HETATM   17  C   UNL     1      32.592   8.143 -14.567  1.00  0.00     0.000 C 
BRANCH  17  18
HETATM   18  C   UNL     1      31.590   7.104 -14.046  1.00  0.00     0.000 C 
BRANCH  18  19
HETATM   19  C   UNL     1      31.832   5.735 -14.692  1.00  0.00    -0.000 C 
BRANCH  19  20
HETATM   20  C   UNL     1      30.610   5.282 -15.500  1.00  0.00    -0.005 C 
HETATM   21  C   UNL     1      30.969   5.065 -16.967  1.00  0.00     0.005 C 
ENDBRANCH  19  20
ENDBRANCH  18  19
ENDBRANCH  17  18
ENDBRANCH  16  17
ENDBRANCH  15  16
ENDBRANCH  14  15
ENDBRANCH  13  14
ENDBRANCH  11  12
ENDBRANCH  10  11
ENDBRANCH   9  10
ENDBRANCH   8   9
ENDBRANCH   7   8
ENDBRANCH   6   7
ENDBRANCH   5   6
ENDBRANCH   3   5
ENDBRANCH   1   3
TORSDOF 16
ENDMDL
MODEL 17
REMARK VINA RESULT:      -3.5     47.370     48.738
REMARK  16 active torsions:
REMARK  status: ('A' for Active; 'I' for Inactive)
REMARK    1  A    between atoms: O_1  and  C_20 
REMARK    2  A    between atoms: C_3  and  C_4 
REMARK    3  A    between atoms: C_3  and  C_5 
REMARK    4  A    between atoms: C_4  and  C_8 
REMARK    5  A    between atoms: C_5  and  C_11 
REMARK    6  A    between atoms: C_6  and  C_7 
REMARK    7  A    between atoms: C_6  and  C_9 
REMARK    8  A    between atoms: C_7  and  C_10 
REMARK    9  A    between atoms: C_8  and  C_12 
REMARK   10  A    between atoms: C_9  and  C_13 
REMARK   11  A    between atoms: C_10  and  C_14 
REMARK   12  A    between atoms: C_11  and  C_15 
REMARK   13  A    between atoms: C_12  and  C_16 
REMARK   14  A    between atoms: C_13  and  C_17 
REMARK   15  A    between atoms: C_14  and  C_18 
REMARK   16  A    between atoms: C_18  and  C_20 
ROOT
HETATM    1  O   UNL     1     -11.582  11.033 -10.531  1.00  0.00    -0.776 OA
HETATM    2  H   UNL     1     -11.437  11.827  -9.997  1.00  0.00     0.167 HD
ENDROOT
BRANCH   1   3
HETATM    3  C   UNL     1     -12.549  10.982 -11.470  1.00  0.00     0.139 C 
HETATM    4  O   UNL     1     -12.260  10.695 -12.624  1.00  0.00    -0.650 OA
BRANCH   3   5
HETATM    5  C   UNL     1     -13.971  11.283 -11.074  1.00  0.00     0.110 C 
BRANCH   5   6
HETATM    6  C   UNL     1     -14.283  10.909  -9.618  1.00  0.00     0.010 C 
BRANCH   6   7
HETATM    7  C   UNL     1     -15.653  11.451  -9.193  1.00  0.00     0.001 C 
BRANCH   7   8
HETATM    8  C   UNL     1     -16.338  12.179 -10.355  1.00  0.00     0.000 C 
BRANCH   8   9
HETATM    9  C   UNL     1     -17.584  11.419 -10.824  1.00  0.00     0.000 C 
BRANCH   9  10
HETATM   10  C   UNL     1     -18.806  12.344 -10.849  1.00  0.00     0.004 C 
BRANCH  10  11
HETATM   11  C   UNL     1     -20.019  11.649 -11.473  1.00  0.00     0.027 C 
BRANCH  11  12
HETATM   12  C   UNL     1     -20.822  12.655 -12.263  1.00  0.00    -0.031 C 
HETATM   13  C   UNL     1     -20.472  13.224 -13.434  1.00  0.00    -0.031 C 
BRANCH  13  14
HETATM   14  C   UNL     1     -19.197  12.992 -14.217  1.00  0.00     0.027 C 
BRANCH  14  15
HETATM   15  C   UNL     1     -19.234  11.641 -14.953  1.00  0.00     0.004 C 
BRANCH  15  16
HETATM   16  C   UNL     1     -18.098  10.673 -14.565  1.00  0.00     0.000 C 
BRANCH  16  17
HETATM   17  C   UNL     1     -16.829  10.855 -15.414  1.00  0.00     0.000 C 
BRANCH  17  18
HETATM   18  C   UNL     1     -15.873  11.868 -14.771  1.00  0.00     0.000 C 
BRANCH  18  19
HETATM   19  C   UNL     1     -14.433  11.644 -15.248  1.00  0.00    -0.000 C 
BRANCH  19  20
HETATM   20  C   UNL     1     -14.229  10.203 -15.730  1.00  0.00    -0.005 C 
HETATM   21  C   UNL     1     -12.776   9.954 -16.121  1.00  0.00     0.005 C 
ENDBRANCH  19  20
ENDBRANCH  18  19
ENDBRANCH  17  18
ENDBRANCH  16  17
ENDBRANCH  15  16
ENDBRANCH  14  15
ENDBRANCH  13  14
ENDBRANCH  11  12
ENDBRANCH  10  11
ENDBRANCH   9  10
ENDBRANCH   8   9
ENDBRANCH   7   8
ENDBRANCH   6   7
ENDBRANCH   5   6
ENDBRANCH   3   5
ENDBRANCH   1   3
TORSDOF 16
ENDMDL
MODEL 18
REMARK VINA RESULT:      -3.4     48.069     49.595
REMARK  16 active torsions:
REMARK  status: ('A' for Active; 'I' for Inactive)
REMARK    1  A    between atoms: O_1  and  C_20 
REMARK    2  A    between atoms: C_3  and  C_4 
REMARK    3  A    between atoms: C_3  and  C_5 
REMARK    4  A    between atoms: C_4  and  C_8 
REMARK    5  A    between atoms: C_5  and  C_11 
REMARK    6  A    between atoms: C_6  and  C_7 
REMARK    7  A    between atoms: C_6  and  C_9 
REMARK    8  A    between atoms: C_7  and  C_10 
REMARK    9  A    between atoms: C_8  and  C_12 
REMARK   10  A    between atoms: C_9  and  C_13 
REMARK   11  A    between atoms: C_10  and  C_14 
REMARK   12  A    between atoms: C_11  and  C_15 
REMARK   13  A    between atoms: C_12  and  C_16 
REMARK   14  A    between atoms: C_13  and  C_17 
REMARK   15  A    between atoms: C_14  and  C_18 
REMARK   16  A    between atoms: C_18  and  C_20 
ROOT
HETATM    1  O   UNL     1     -21.968  13.133 -18.315  1.00  0.00    -0.776 OA
HETATM    2  H   UNL     1     -22.166  13.667 -19.098  1.00  0.00     0.167 HD
ENDROOT
BRANCH   1   3
HETATM    3  C   UNL     1     -20.697  12.889 -17.932  1.00  0.00     0.139 C 
HETATM    4  O   UNL     1     -19.768  13.261 -18.636  1.00  0.00    -0.650 OA
BRANCH   3   5
HETATM    5  C   UNL     1     -20.452  12.159 -16.637  1.00  0.00     0.110 C 
BRANCH   5   6
HETATM    6  C   UNL     1     -20.426  13.089 -15.416  1.00  0.00     0.010 C 
BRANCH   6   7
HETATM    7  C   UNL     1     -18.999  13.247 -14.877  1.00  0.00     0.001 C 
BRANCH   7   8
HETATM    8  C   UNL     1     -18.243  11.915 -14.930  1.00  0.00     0.000 C 
BRANCH   8   9
HETATM    9  C   UNL     1     -16.727  12.139 -14.892  1.00  0.00     0.000 C 
BRANCH   9  10
HETATM   10  C   UNL     1     -16.049  11.112 -13.978  1.00  0.00     0.004 C 
BRANCH  10  11
HETATM   11  C   UNL     1     -14.993  10.302 -14.734  1.00  0.00     0.027 C 
BRANCH  11  12
HETATM   12  C   UNL     1     -13.659  11.001 -14.637  1.00  0.00    -0.031 C 
HETATM   13  C   UNL     1     -12.774  10.912 -13.623  1.00  0.00    -0.031 C 
BRANCH  13  14
HETATM   14  C   UNL     1     -12.920  10.100 -12.353  1.00  0.00     0.027 C 
BRANCH  14  15
HETATM   15  C   UNL     1     -13.551  10.937 -11.227  1.00  0.00     0.004 C 
BRANCH  15  16
HETATM   16  C   UNL     1     -13.187  10.467  -9.804  1.00  0.00     0.000 C 
BRANCH  16  17
HETATM   17  C   UNL     1     -14.204  10.912  -8.740  1.00  0.00     0.000 C 
BRANCH  17  18
HETATM   18  C   UNL     1     -15.640  10.610  -9.186  1.00  0.00     0.000 C 
BRANCH  18  19
HETATM   19  C   UNL     1     -16.350  11.886  -9.653  1.00  0.00    -0.000 C 
BRANCH  19  20
HETATM   20  C   UNL     1     -17.688  11.559 -10.327  1.00  0.00    -0.005 C 
HETATM   21  C   UNL     1     -18.631  12.757 -10.290  1.00  0.00     0.005 C 
ENDBRANCH  19  20
ENDBRANCH  18  19
ENDBRANCH  17  18
ENDBRANCH  16  17
ENDBRANCH  15  16
ENDBRANCH  14  15
ENDBRANCH  13  14
ENDBRANCH  11  12
ENDBRANCH  10  11
ENDBRANCH   9  10
ENDBRANCH   8   9
ENDBRANCH   7   8
ENDBRANCH   6   7
ENDBRANCH   5   6
ENDBRANCH   3   5
ENDBRANCH   1   3
TORSDOF 16
ENDMDL
MODEL 19
REMARK VINA RESULT:      -3.4     38.978     40.418
REMARK  16 active torsions:
REMARK  status: ('A' for Active; 'I' for Inactive)
REMARK    1  A    between atoms: O_1  and  C_20 
REMARK    2  A    between atoms: C_3  and  C_4 
REMARK    3  A    between atoms: C_3  and  C_5 
REMARK    4  A    between atoms: C_4  and  C_8 
REMARK    5  A    between atoms: C_5  and  C_11 
REMARK    6  A    between atoms: C_6  and  C_7 
REMARK    7  A    between atoms: C_6  and  C_9 
REMARK    8  A    between atoms: C_7  and  C_10 
REMARK    9  A    between atoms: C_8  and  C_12 
REMARK   10  A    between atoms: C_9  and  C_13 
REMARK   11  A    between atoms: C_10  and  C_14 
REMARK   12  A    between atoms: C_11  and  C_15 
REMARK   13  A    between atoms: C_12  and  C_16 
REMARK   14  A    between atoms: C_13  and  C_17 
REMARK   15  A    between atoms: C_14  and  C_18 
REMARK   16  A    between atoms: C_18  and  C_20 
ROOT
HETATM    1  O   UNL     1      -4.825  15.872 -17.715  1.00  0.00    -0.776 OA
HETATM    2  H   UNL     1      -4.692  15.622 -16.789  1.00  0.00     0.167 HD
ENDROOT
BRANCH   1   3
HETATM    3  C   UNL     1      -6.061  15.994 -18.242  1.00  0.00     0.139 C 
HETATM    4  O   UNL     1      -6.356  15.365 -19.249  1.00  0.00    -0.650 OA
BRANCH   3   5
HETATM    5  C   UNL     1      -7.054  16.908 -17.573  1.00  0.00     0.110 C 
BRANCH   5   6
HETATM    6  C   UNL     1      -8.063  16.159 -16.692  1.00  0.00     0.010 C 
BRANCH   6   7
HETATM    7  C   UNL     1      -7.890  16.536 -15.215  1.00  0.00     0.001 C 
BRANCH   7   8
HETATM    8  C   UNL     1      -6.673  15.829 -14.609  1.00  0.00     0.000 C 
BRANCH   8   9
HETATM    9  C   UNL     1      -6.439  16.277 -13.161  1.00  0.00     0.000 C 
BRANCH   9  10
HETATM   10  C   UNL     1      -7.772  16.515 -12.445  1.00  0.00     0.004 C 
BRANCH  10  11
HETATM   11  C   UNL     1      -7.779  15.880 -11.051  1.00  0.00     0.027 C 
BRANCH  11  12
HETATM   12  C   UNL     1      -6.479  15.144 -10.829  1.00  0.00    -0.031 C 
HETATM   13  C   UNL     1      -5.817  15.011  -9.663  1.00  0.00    -0.031 C 
BRANCH  13  14
HETATM   14  C   UNL     1      -6.218  15.575  -8.316  1.00  0.00     0.027 C 
BRANCH  14  15
HETATM   15  C   UNL     1      -5.545  16.935  -8.059  1.00  0.00     0.004 C 
BRANCH  15  16
HETATM   16  C   UNL     1      -6.437  18.155  -8.363  1.00  0.00     0.000 C 
BRANCH  16  17
HETATM   17  C   UNL     1      -5.676  19.311  -9.032  1.00  0.00     0.000 C 
BRANCH  17  18
HETATM   18  C   UNL     1      -4.675  18.788 -10.070  1.00  0.00     0.000 C 
BRANCH  18  19
HETATM   19  C   UNL     1      -5.141  19.111 -11.494  1.00  0.00    -0.000 C 
BRANCH  19  20
HETATM   20  C   UNL     1      -6.501  19.820 -11.483  1.00  0.00    -0.005 C 
HETATM   21  C   UNL     1      -6.947  20.179 -12.897  1.00  0.00     0.005 C 
ENDBRANCH  19  20
ENDBRANCH  18  19
ENDBRANCH  17  18
ENDBRANCH  16  17
ENDBRANCH  15  16
ENDBRANCH  14  15
ENDBRANCH  13  14
ENDBRANCH  11  12
ENDBRANCH  10  11
ENDBRANCH   9  10
ENDBRANCH   8   9
ENDBRANCH   7   8
ENDBRANCH   6   7
ENDBRANCH   5   6
ENDBRANCH   3   5
ENDBRANCH   1   3
TORSDOF 16
ENDMDL
MODEL 20
REMARK VINA RESULT:      -3.4     48.519     49.982
REMARK  16 active torsions:
REMARK  status: ('A' for Active; 'I' for Inactive)
REMARK    1  A    between atoms: O_1  and  C_20 
REMARK    2  A    between atoms: C_3  and  C_4 
REMARK    3  A    between atoms: C_3  and  C_5 
REMARK    4  A    between atoms: C_4  and  C_8 
REMARK    5  A    between atoms: C_5  and  C_11 
REMARK    6  A    between atoms: C_6  and  C_7 
REMARK    7  A    between atoms: C_6  and  C_9 
REMARK    8  A    between atoms: C_7  and  C_10 
REMARK    9  A    between atoms: C_8  and  C_12 
REMARK   10  A    between atoms: C_9  and  C_13 
REMARK   11  A    between atoms: C_10  and  C_14 
REMARK   12  A    between atoms: C_11  and  C_15 
REMARK   13  A    between atoms: C_12  and  C_16 
REMARK   14  A    between atoms: C_13  and  C_17 
REMARK   15  A    between atoms: C_14  and  C_18 
REMARK   16  A    between atoms: C_18  and  C_20 
ROOT
HETATM    1  O   UNL     1     -22.381  11.639 -11.946  1.00  0.00    -0.776 OA
HETATM    2  H   UNL     1     -22.829  11.920 -11.136  1.00  0.00     0.167 HD
ENDROOT
BRANCH   1   3
HETATM    3  C   UNL     1     -21.791  12.529 -12.771  1.00  0.00     0.139 C 
HETATM    4  O   UNL     1     -21.846  13.724 -12.514  1.00  0.00    -0.650 OA
BRANCH   3   5
HETATM    5  C   UNL     1     -21.073  12.027 -13.996  1.00  0.00     0.110 C 
BRANCH   5   6
HETATM    6  C   UNL     1     -19.883  12.908 -14.401  1.00  0.00     0.010 C 
BRANCH   6   7
HETATM    7  C   UNL     1     -18.878  12.118 -15.249  1.00  0.00     0.001 C 
BRANCH   7   8
HETATM    8  C   UNL     1     -17.439  12.517 -14.905  1.00  0.00     0.000 C 
BRANCH   8   9
HETATM    9  C   UNL     1     -16.886  11.656 -13.763  1.00  0.00     0.000 C 
BRANCH   9  10
HETATM   10  C   UNL     1     -17.733  10.393 -13.575  1.00  0.00     0.004 C 
BRANCH  10  11
HETATM   11  C   UNL     1     -18.133  10.202 -12.110  1.00  0.00     0.027 C 
BRANCH  11  12
HETATM   12  C   UNL     1     -18.297  11.552 -11.454  1.00  0.00    -0.031 C 
HETATM   13  C   UNL     1     -17.744  11.957 -10.294  1.00  0.00    -0.031 C 
BRANCH  13  14
HETATM   14  C   UNL     1     -16.841  11.151  -9.383  1.00  0.00     0.027 C 
BRANCH  14  15
HETATM   15  C   UNL     1     -15.393  11.668  -9.436  1.00  0.00     0.004 C 
BRANCH  15  16
HETATM   16  C   UNL     1     -14.680  11.426 -10.783  1.00  0.00     0.000 C 
BRANCH  16  17
HETATM   17  C   UNL     1     -13.995  10.052 -10.868  1.00  0.00     0.000 C 
BRANCH  17  18
HETATM   18  C   UNL     1     -14.536   9.238 -12.051  1.00  0.00     0.000 C 
BRANCH  18  19
HETATM   19  C   UNL     1     -13.430   8.955 -13.075  1.00  0.00    -0.000 C 
BRANCH  19  20
HETATM   20  C   UNL     1     -13.760   9.587 -14.432  1.00  0.00    -0.005 C 
HETATM   21  C   UNL     1     -13.195  11.000 -14.534  1.00  0.00     0.005 C 
ENDBRANCH  19  20
ENDBRANCH  18  19
ENDBRANCH  17  18
ENDBRANCH  16  17
ENDBRANCH  15  16
ENDBRANCH  14  15
ENDBRANCH  13  14
ENDBRANCH  11  12
ENDBRANCH  10  11
ENDBRANCH   9  10
ENDBRANCH   8   9
ENDBRANCH   7   8
ENDBRANCH   6   7
ENDBRANCH   5   6
ENDBRANCH   3   5
ENDBRANCH   1   3
TORSDOF 16
ENDMDL
