MODEL 1
REMARK VINA RESULT:      -5.1      0.000      0.000
REMARK  14 active torsions:
REMARK  status: ('A' for Active; 'I' for Inactive)
REMARK    1  A    between atoms: O_1  and  C_11 
REMARK    2  A    between atoms: C_3  and  C_4 
REMARK    3  A    between atoms: C_3  and  C_5 
REMARK    4  A    between atoms: C_4  and  C_6 
REMARK    5  A    between atoms: C_5  and  C_11 
REMARK    6  A    between atoms: C_7  and  C_8 
REMARK    7  A    between atoms: C_7  and  C_9 
REMARK    8  A    between atoms: C_10  and  C_12 
REMARK    9  A    between atoms: C_10  and  C_14 
REMARK   10  A    between atoms: C_13  and  C_16 
REMARK   11  A    between atoms: C_13  and  C_17 
REMARK   12  A    between atoms: C_15  and  C_18 
REMARK   13  A    between atoms: C_15  and  C_19 
REMARK   14  A    between atoms: C_20  and  C_21 
ROOT
HETATM    1  O   UNL     1      27.873  10.413 -14.475  1.00  0.00    -0.776 OA
HETATM    2  H   UNL     1      27.013  10.856 -14.476  1.00  0.00     0.167 HD
ENDROOT
BRANCH   1   3
HETATM    3  C   UNL     1      28.930  10.929 -13.816  1.00  0.00     0.139 C 
HETATM    4  O   UNL     1      28.772  11.881 -13.064  1.00  0.00    -0.650 OA
BRANCH   3   5
HETATM    5  C   UNL     1      30.291  10.316 -14.022  1.00  0.00     0.110 C 
BRANCH   5   6
HETATM    6  C   UNL     1      31.200  10.436 -12.790  1.00  0.00     0.014 C 
BRANCH   6   7
HETATM    7  C   UNL     1      32.261   9.332 -12.781  1.00  0.00     0.027 C 
BRANCH   7   8
HETATM    8  C   UNL     1      33.374   9.693 -11.832  1.00  0.00    -0.030 C 
HETATM    9  C   UNL     1      34.168   8.812 -11.192  1.00  0.00    -0.027 C 
BRANCH   9  10
HETATM   10  C   UNL     1      34.103   7.312 -11.331  1.00  0.00     0.053 C 
BRANCH  10  11
HETATM   11  C   UNL     1      33.615   6.672 -10.053  1.00  0.00    -0.027 C 
HETATM   12  C   UNL     1      32.337   6.476  -9.673  1.00  0.00    -0.027 C 
BRANCH  12  13
HETATM   13  C   UNL     1      31.086   6.843 -10.435  1.00  0.00     0.053 C 
BRANCH  13  14
HETATM   14  C   UNL     1      30.476   5.589 -11.006  1.00  0.00    -0.027 C 
HETATM   15  C   UNL     1      30.487   5.231 -12.304  1.00  0.00    -0.027 C 
BRANCH  15  16
HETATM   16  C   UNL     1      31.147   5.996 -13.424  1.00  0.00     0.053 C 
BRANCH  16  17
HETATM   17  C   UNL     1      32.431   5.314 -13.841  1.00  0.00    -0.027 C 
HETATM   18  C   UNL     1      33.335   5.752 -14.741  1.00  0.00    -0.027 C 
BRANCH  18  19
HETATM   19  C   UNL     1      33.265   7.024 -15.544  1.00  0.00     0.053 C 
BRANCH  19  20
HETATM   20  C   UNL     1      33.159   6.685 -17.009  1.00  0.00    -0.027 C 
HETATM   21  C   UNL     1      32.007   6.448 -17.663  1.00  0.00    -0.031 C 
BRANCH  21  22
HETATM   22  C   UNL     1      30.649   6.490 -17.009  1.00  0.00     0.022 C 
HETATM   23  C   UNL     1      30.045   5.095 -16.890  1.00  0.00     0.009 C 
ENDBRANCH  21  22
ENDBRANCH  19  20
ENDBRANCH  18  19
ENDBRANCH  16  17
ENDBRANCH  15  16
ENDBRANCH  13  14
ENDBRANCH  12  13
ENDBRANCH  10  11
ENDBRANCH   9  10
ENDBRANCH   7   8
ENDBRANCH   6   7
ENDBRANCH   5   6
ENDBRANCH   3   5
ENDBRANCH   1   3
TORSDOF 14
ENDMDL
MODEL 2
REMARK VINA RESULT:      -4.7      3.900      5.706
REMARK  14 active torsions:
REMARK  status: ('A' for Active; 'I' for Inactive)
REMARK    1  A    between atoms: O_1  and  C_11 
REMARK    2  A    between atoms: C_3  and  C_4 
REMARK    3  A    between atoms: C_3  and  C_5 
REMARK    4  A    between atoms: C_4  and  C_6 
REMARK    5  A    between atoms: C_5  and  C_11 
REMARK    6  A    between atoms: C_7  and  C_8 
REMARK    7  A    between atoms: C_7  and  C_9 
REMARK    8  A    between atoms: C_10  and  C_12 
REMARK    9  A    between atoms: C_10  and  C_14 
REMARK   10  A    between atoms: C_13  and  C_16 
REMARK   11  A    between atoms: C_13  and  C_17 
REMARK   12  A    between atoms: C_15  and  C_18 
REMARK   13  A    between atoms: C_15  and  C_19 
REMARK   14  A    between atoms: C_20  and  C_21 
ROOT
HETATM    1  O   UNL     1      33.177   5.411  -4.769  1.00  0.00    -0.776 OA
HETATM    2  H   UNL     1      34.122   5.571  -4.903  1.00  0.00     0.167 HD
ENDROOT
BRANCH   1   3
HETATM    3  C   UNL     1      32.381   5.008  -5.780  1.00  0.00     0.139 C 
HETATM    4  O   UNL     1      32.826   4.271  -6.647  1.00  0.00    -0.650 OA
BRANCH   3   5
HETATM    5  C   UNL     1      30.950   5.479  -5.815  1.00  0.00     0.110 C 
BRANCH   5   6
HETATM    6  C   UNL     1      30.521   6.004  -7.193  1.00  0.00     0.014 C 
BRANCH   6   7
HETATM    7  C   UNL     1      31.257   7.301  -7.540  1.00  0.00     0.027 C 
BRANCH   7   8
HETATM    8  C   UNL     1      30.871   7.761  -8.922  1.00  0.00    -0.030 C 
HETATM    9  C   UNL     1      31.604   7.575 -10.037  1.00  0.00    -0.027 C 
BRANCH   9  10
HETATM   10  C   UNL     1      32.926   6.853 -10.107  1.00  0.00     0.053 C 
BRANCH  10  11
HETATM   11  C   UNL     1      32.721   5.363 -10.253  1.00  0.00    -0.027 C 
HETATM   12  C   UNL     1      32.631   4.659 -11.399  1.00  0.00    -0.027 C 
BRANCH  12  13
HETATM   13  C   UNL     1      32.721   5.188 -12.811  1.00  0.00     0.053 C 
BRANCH  13  14
HETATM   14  C   UNL     1      31.342   5.579 -13.275  1.00  0.00    -0.027 C 
HETATM   15  C   UNL     1      30.896   5.524 -14.545  1.00  0.00    -0.027 C 
BRANCH  15  16
HETATM   16  C   UNL     1      31.678   5.021 -15.732  1.00  0.00     0.053 C 
BRANCH  16  17
HETATM   17  C   UNL     1      31.025   5.471 -17.021  1.00  0.00    -0.027 C 
HETATM   18  C   UNL     1      31.527   6.322 -17.939  1.00  0.00    -0.027 C 
BRANCH  18  19
HETATM   19  C   UNL     1      32.857   7.026 -17.883  1.00  0.00     0.053 C 
BRANCH  19  20
HETATM   20  C   UNL     1      32.671   8.402 -17.295  1.00  0.00    -0.027 C 
HETATM   21  C   UNL     1      33.074   8.774 -16.066  1.00  0.00    -0.031 C 
BRANCH  21  22
HETATM   22  C   UNL     1      33.773   7.852 -15.099  1.00  0.00     0.022 C 
HETATM   23  C   UNL     1      34.196   8.591 -13.834  1.00  0.00     0.009 C 
ENDBRANCH  21  22
ENDBRANCH  19  20
ENDBRANCH  18  19
ENDBRANCH  16  17
ENDBRANCH  15  16
ENDBRANCH  13  14
ENDBRANCH  12  13
ENDBRANCH  10  11
ENDBRANCH   9  10
ENDBRANCH   7   8
ENDBRANCH   6   7
ENDBRANCH   5   6
ENDBRANCH   3   5
ENDBRANCH   1   3
TORSDOF 14
ENDMDL
MODEL 3
REMARK VINA RESULT:      -4.7      3.038      6.330
REMARK  14 active torsions:
REMARK  status: ('A' for Active; 'I' for Inactive)
REMARK    1  A    between atoms: O_1  and  C_11 
REMARK    2  A    between atoms: C_3  and  C_4 
REMARK    3  A    between atoms: C_3  and  C_5 
REMARK    4  A    between atoms: C_4  and  C_6 
REMARK    5  A    between atoms: C_5  and  C_11 
REMARK    6  A    between atoms: C_7  and  C_8 
REMARK    7  A    between atoms: C_7  and  C_9 
REMARK    8  A    between atoms: C_10  and  C_12 
REMARK    9  A    between atoms: C_10  and  C_14 
REMARK   10  A    between atoms: C_13  and  C_16 
REMARK   11  A    between atoms: C_13  and  C_17 
REMARK   12  A    between atoms: C_15  and  C_18 
REMARK   13  A    between atoms: C_15  and  C_19 
REMARK   14  A    between atoms: C_20  and  C_21 
ROOT
HETATM    1  O   UNL     1      32.793   3.924 -11.603  1.00  0.00    -0.776 OA
HETATM    2  H   UNL     1      33.480   3.948 -12.284  1.00  0.00     0.167 HD
ENDROOT
BRANCH   1   3
HETATM    3  C   UNL     1      31.894   4.921 -11.475  1.00  0.00     0.139 C 
HETATM    4  O   UNL     1      31.740   5.464 -10.390  1.00  0.00    -0.650 OA
BRANCH   3   5
HETATM    5  C   UNL     1      31.096   5.345 -12.680  1.00  0.00     0.110 C 
BRANCH   5   6
HETATM    6  C   UNL     1      31.919   5.351 -13.977  1.00  0.00     0.014 C 
BRANCH   6   7
HETATM    7  C   UNL     1      31.008   5.418 -15.205  1.00  0.00     0.027 C 
BRANCH   7   8
HETATM    8  C   UNL     1      31.758   4.962 -16.430  1.00  0.00    -0.030 C 
HETATM    9  C   UNL     1      32.268   5.774 -17.377  1.00  0.00    -0.027 C 
BRANCH   9  10
HETATM   10  C   UNL     1      32.204   7.280 -17.368  1.00  0.00     0.053 C 
BRANCH  10  11
HETATM   11  C   UNL     1      33.586   7.880 -17.473  1.00  0.00    -0.027 C 
HETATM   12  C   UNL     1      34.481   8.052 -16.479  1.00  0.00    -0.027 C 
BRANCH  12  13
HETATM   13  C   UNL     1      34.319   7.679 -15.024  1.00  0.00     0.053 C 
BRANCH  13  14
HETATM   14  C   UNL     1      34.217   8.940 -14.206  1.00  0.00    -0.027 C 
HETATM   15  C   UNL     1      33.073   9.555 -13.851  1.00  0.00    -0.027 C 
BRANCH  15  16
HETATM   16  C   UNL     1      31.679   9.076 -14.170  1.00  0.00     0.053 C 
BRANCH  16  17
HETATM   17  C   UNL     1      30.665   9.794 -13.307  1.00  0.00    -0.027 C 
HETATM   18  C   UNL     1      29.565  10.458 -13.717  1.00  0.00    -0.027 C 
BRANCH  18  19
HETATM   19  C   UNL     1      29.100  10.642 -15.137  1.00  0.00     0.053 C 
BRANCH  19  20
HETATM   20  C   UNL     1      29.221  12.096 -15.520  1.00  0.00    -0.027 C 
HETATM   21  C   UNL     1      30.214  12.616 -16.263  1.00  0.00    -0.031 C 
BRANCH  21  22
HETATM   22  C   UNL     1      31.357  11.804 -16.820  1.00  0.00     0.022 C 
HETATM   23  C   UNL     1      32.690  12.233 -16.217  1.00  0.00     0.009 C 
ENDBRANCH  21  22
ENDBRANCH  19  20
ENDBRANCH  18  19
ENDBRANCH  16  17
ENDBRANCH  15  16
ENDBRANCH  13  14
ENDBRANCH  12  13
ENDBRANCH  10  11
ENDBRANCH   9  10
ENDBRANCH   7   8
ENDBRANCH   6   7
ENDBRANCH   5   6
ENDBRANCH   3   5
ENDBRANCH   1   3
TORSDOF 14
ENDMDL
MODEL 4
REMARK VINA RESULT:      -4.5      1.379      2.420
REMARK  14 active torsions:
REMARK  status: ('A' for Active; 'I' for Inactive)
REMARK    1  A    between atoms: O_1  and  C_11 
REMARK    2  A    between atoms: C_3  and  C_4 
REMARK    3  A    between atoms: C_3  and  C_5 
REMARK    4  A    between atoms: C_4  and  C_6 
REMARK    5  A    between atoms: C_5  and  C_11 
REMARK    6  A    between atoms: C_7  and  C_8 
REMARK    7  A    between atoms: C_7  and  C_9 
REMARK    8  A    between atoms: C_10  and  C_12 
REMARK    9  A    between atoms: C_10  and  C_14 
REMARK   10  A    between atoms: C_13  and  C_16 
REMARK   11  A    between atoms: C_13  and  C_17 
REMARK   12  A    between atoms: C_15  and  C_18 
REMARK   13  A    between atoms: C_15  and  C_19 
REMARK   14  A    between atoms: C_20  and  C_21 
ROOT
HETATM    1  O   UNL     1      28.308  10.488 -13.848  1.00  0.00    -0.776 OA
HETATM    2  H   UNL     1      27.527  11.053 -13.765  1.00  0.00     0.167 HD
ENDROOT
BRANCH   1   3
HETATM    3  C   UNL     1      29.549  10.962 -13.612  1.00  0.00     0.139 C 
HETATM    4  O   UNL     1      29.697  12.119 -13.246  1.00  0.00    -0.650 OA
BRANCH   3   5
HETATM    5  C   UNL     1      30.730  10.047 -13.807  1.00  0.00     0.110 C 
BRANCH   5   6
HETATM    6  C   UNL     1      31.708  10.064 -12.623  1.00  0.00     0.014 C 
BRANCH   6   7
HETATM    7  C   UNL     1      32.468   8.738 -12.520  1.00  0.00     0.027 C 
BRANCH   7   8
HETATM    8  C   UNL     1      33.489   8.813 -11.414  1.00  0.00    -0.030 C 
HETATM    9  C   UNL     1      34.140   7.760 -10.884  1.00  0.00    -0.027 C 
BRANCH   9  10
HETATM   10  C   UNL     1      33.987   6.324 -11.320  1.00  0.00     0.053 C 
BRANCH  10  11
HETATM   11  C   UNL     1      33.268   5.514 -10.267  1.00  0.00    -0.027 C 
HETATM   12  C   UNL     1      31.938   5.448 -10.053  1.00  0.00    -0.027 C 
BRANCH  12  13
HETATM   13  C   UNL     1      30.849   6.161 -10.818  1.00  0.00     0.053 C 
BRANCH  13  14
HETATM   14  C   UNL     1      30.201   5.187 -11.768  1.00  0.00    -0.027 C 
HETATM   15  C   UNL     1      30.379   5.155 -13.102  1.00  0.00    -0.027 C 
BRANCH  15  16
HETATM   16  C   UNL     1      31.292   6.060 -13.891  1.00  0.00     0.053 C 
BRANCH  16  17
HETATM   17  C   UNL     1      32.202   5.242 -14.782  1.00  0.00    -0.027 C 
HETATM   18  C   UNL     1      33.418   5.591 -15.250  1.00  0.00    -0.027 C 
BRANCH  18  19
HETATM   19  C   UNL     1      34.145   6.884 -14.995  1.00  0.00     0.053 C 
BRANCH  19  20
HETATM   20  C   UNL     1      33.742   7.899 -16.034  1.00  0.00    -0.027 C 
HETATM   21  C   UNL     1      34.138   9.184 -16.049  1.00  0.00    -0.031 C 
BRANCH  21  22
HETATM   22  C   UNL     1      35.051   9.792 -15.014  1.00  0.00     0.022 C 
HETATM   23  C   UNL     1      34.612  11.205 -14.646  1.00  0.00     0.009 C 
ENDBRANCH  21  22
ENDBRANCH  19  20
ENDBRANCH  18  19
ENDBRANCH  16  17
ENDBRANCH  15  16
ENDBRANCH  13  14
ENDBRANCH  12  13
ENDBRANCH  10  11
ENDBRANCH   9  10
ENDBRANCH   7   8
ENDBRANCH   6   7
ENDBRANCH   5   6
ENDBRANCH   3   5
ENDBRANCH   1   3
TORSDOF 14
ENDMDL
MODEL 5
REMARK VINA RESULT:      -4.5      2.559      4.611
REMARK  14 active torsions:
REMARK  status: ('A' for Active; 'I' for Inactive)
REMARK    1  A    between atoms: O_1  and  C_11 
REMARK    2  A    between atoms: C_3  and  C_4 
REMARK    3  A    between atoms: C_3  and  C_5 
REMARK    4  A    between atoms: C_4  and  C_6 
REMARK    5  A    between atoms: C_5  and  C_11 
REMARK    6  A    between atoms: C_7  and  C_8 
REMARK    7  A    between atoms: C_7  and  C_9 
REMARK    8  A    between atoms: C_10  and  C_12 
REMARK    9  A    between atoms: C_10  and  C_14 
REMARK   10  A    between atoms: C_13  and  C_16 
REMARK   11  A    between atoms: C_13  and  C_17 
REMARK   12  A    between atoms: C_15  and  C_18 
REMARK   13  A    between atoms: C_15  and  C_19 
REMARK   14  A    between atoms: C_20  and  C_21 
ROOT
HETATM    1  O   UNL     1      28.299  12.656  -9.409  1.00  0.00    -0.776 OA
HETATM    2  H   UNL     1      28.271  12.980 -10.321  1.00  0.00     0.167 HD
ENDROOT
BRANCH   1   3
HETATM    3  C   UNL     1      28.638  11.382  -9.124  1.00  0.00     0.139 C 
HETATM    4  O   UNL     1      27.942  10.463  -9.533  1.00  0.00    -0.650 OA
BRANCH   3   5
HETATM    5  C   UNL     1      29.875  11.120  -8.305  1.00  0.00     0.110 C 
BRANCH   5   6
HETATM    6  C   UNL     1      30.986  10.417  -9.099  1.00  0.00     0.014 C 
BRANCH   6   7
HETATM    7  C   UNL     1      30.949   8.904  -8.872  1.00  0.00     0.027 C 
BRANCH   7   8
HETATM    8  C   UNL     1      31.019   8.600  -7.398  1.00  0.00    -0.030 C 
HETATM    9  C   UNL     1      30.905   7.374  -6.850  1.00  0.00    -0.027 C 
BRANCH   9  10
HETATM   10  C   UNL     1      30.715   6.087  -7.612  1.00  0.00     0.053 C 
BRANCH  10  11
HETATM   11  C   UNL     1      32.033   5.379  -7.815  1.00  0.00    -0.027 C 
HETATM   12  C   UNL     1      32.775   5.340  -8.940  1.00  0.00    -0.027 C 
BRANCH  12  13
HETATM   13  C   UNL     1      32.470   5.998 -10.265  1.00  0.00     0.053 C 
BRANCH  13  14
HETATM   14  C   UNL     1      31.890   4.969 -11.200  1.00  0.00    -0.027 C 
HETATM   15  C   UNL     1      32.013   4.969 -12.541  1.00  0.00    -0.027 C 
BRANCH  15  16
HETATM   16  C   UNL     1      32.789   5.974 -13.355  1.00  0.00     0.053 C 
BRANCH  16  17
HETATM   17  C   UNL     1      31.848   6.805 -14.200  1.00  0.00    -0.027 C 
HETATM   18  C   UNL     1      31.199   7.931 -13.837  1.00  0.00    -0.027 C 
BRANCH  18  19
HETATM   19  C   UNL     1      31.261   8.614 -12.496  1.00  0.00     0.053 C 
BRANCH  19  20
HETATM   20  C   UNL     1      32.075   9.878 -12.616  1.00  0.00    -0.027 C 
HETATM   21  C   UNL     1      33.370   9.994 -12.272  1.00  0.00    -0.031 C 
BRANCH  21  22
HETATM   22  C   UNL     1      34.193   8.861 -11.711  1.00  0.00     0.022 C 
HETATM   23  C   UNL     1      34.469   9.057 -10.223  1.00  0.00     0.009 C 
ENDBRANCH  21  22
ENDBRANCH  19  20
ENDBRANCH  18  19
ENDBRANCH  16  17
ENDBRANCH  15  16
ENDBRANCH  13  14
ENDBRANCH  12  13
ENDBRANCH  10  11
ENDBRANCH   9  10
ENDBRANCH   7   8
ENDBRANCH   6   7
ENDBRANCH   5   6
ENDBRANCH   3   5
ENDBRANCH   1   3
TORSDOF 14
ENDMDL
MODEL 6
REMARK VINA RESULT:      -4.4     44.531     47.500
REMARK  14 active torsions:
REMARK  status: ('A' for Active; 'I' for Inactive)
REMARK    1  A    between atoms: O_1  and  C_11 
REMARK    2  A    between atoms: C_3  and  C_4 
REMARK    3  A    between atoms: C_3  and  C_5 
REMARK    4  A    between atoms: C_4  and  C_6 
REMARK    5  A    between atoms: C_5  and  C_11 
REMARK    6  A    between atoms: C_7  and  C_8 
REMARK    7  A    between atoms: C_7  and  C_9 
REMARK    8  A    between atoms: C_10  and  C_12 
REMARK    9  A    between atoms: C_10  and  C_14 
REMARK   10  A    between atoms: C_13  and  C_16 
REMARK   11  A    between atoms: C_13  and  C_17 
REMARK   12  A    between atoms: C_15  and  C_18 
REMARK   13  A    between atoms: C_15  and  C_19 
REMARK   14  A    between atoms: C_20  and  C_21 
ROOT
HETATM    1  O   UNL     1     -14.153   8.986 -16.516  1.00  0.00    -0.776 OA
HETATM    2  H   UNL     1     -15.089   9.057 -16.748  1.00  0.00     0.167 HD
ENDROOT
BRANCH   1   3
HETATM    3  C   UNL     1     -13.388  10.081 -16.330  1.00  0.00     0.139 C 
HETATM    4  O   UNL     1     -12.211  10.063 -16.659  1.00  0.00    -0.650 OA
BRANCH   3   5
HETATM    5  C   UNL     1     -14.009  11.311 -15.719  1.00  0.00     0.110 C 
BRANCH   5   6
HETATM    6  C   UNL     1     -15.540  11.335 -15.838  1.00  0.00     0.014 C 
BRANCH   6   7
HETATM    7  C   UNL     1     -16.187  11.728 -14.507  1.00  0.00     0.027 C 
BRANCH   7   8
HETATM    8  C   UNL     1     -17.479  12.464 -14.758  1.00  0.00    -0.030 C 
HETATM    9  C   UNL     1     -18.602  12.334 -14.026  1.00  0.00    -0.027 C 
BRANCH   9  10
HETATM   10  C   UNL     1     -18.761  11.455 -12.811  1.00  0.00     0.053 C 
BRANCH  10  11
HETATM   11  C   UNL     1     -19.196  12.264 -11.611  1.00  0.00    -0.027 C 
HETATM   12  C   UNL     1     -18.662  12.242 -10.374  1.00  0.00    -0.027 C 
BRANCH  12  13
HETATM   13  C   UNL     1     -17.498  11.410  -9.891  1.00  0.00     0.053 C 
BRANCH  13  14
HETATM   14  C   UNL     1     -16.222  12.179 -10.112  1.00  0.00    -0.027 C 
HETATM   15  C   UNL     1     -14.976  11.698  -9.943  1.00  0.00    -0.027 C 
BRANCH  15  16
HETATM   16  C   UNL     1     -14.622  10.289  -9.540  1.00  0.00     0.053 C 
BRANCH  16  17
HETATM   17  C   UNL     1     -13.169  10.002  -9.849  1.00  0.00    -0.027 C 
HETATM   18  C   UNL     1     -12.598   9.884 -11.066  1.00  0.00    -0.027 C 
BRANCH  18  19
HETATM   19  C   UNL     1     -13.287  10.004 -12.400  1.00  0.00     0.053 C 
BRANCH  19  20
HETATM   20  C   UNL     1     -13.624   8.627 -12.914  1.00  0.00    -0.027 C 
HETATM   21  C   UNL     1     -14.868   8.122 -13.003  1.00  0.00    -0.031 C 
BRANCH  21  22
HETATM   22  C   UNL     1     -16.109   8.875 -12.593  1.00  0.00     0.022 C 
HETATM   23  C   UNL     1     -16.897   8.114 -11.533  1.00  0.00     0.009 C 
ENDBRANCH  21  22
ENDBRANCH  19  20
ENDBRANCH  18  19
ENDBRANCH  16  17
ENDBRANCH  15  16
ENDBRANCH  13  14
ENDBRANCH  12  13
ENDBRANCH  10  11
ENDBRANCH   9  10
ENDBRANCH   7   8
ENDBRANCH   6   7
ENDBRANCH   5   6
ENDBRANCH   3   5
ENDBRANCH   1   3
TORSDOF 14
ENDMDL
MODEL 7
REMARK VINA RESULT:      -4.3      2.592      4.535
REMARK  14 active torsions:
REMARK  status: ('A' for Active; 'I' for Inactive)
REMARK    1  A    between atoms: O_1  and  C_11 
REMARK    2  A    between atoms: C_3  and  C_4 
REMARK    3  A    between atoms: C_3  and  C_5 
REMARK    4  A    between atoms: C_4  and  C_6 
REMARK    5  A    between atoms: C_5  and  C_11 
REMARK    6  A    between atoms: C_7  and  C_8 
REMARK    7  A    between atoms: C_7  and  C_9 
REMARK    8  A    between atoms: C_10  and  C_12 
REMARK    9  A    between atoms: C_10  and  C_14 
REMARK   10  A    between atoms: C_13  and  C_16 
REMARK   11  A    between atoms: C_13  and  C_17 
REMARK   12  A    between atoms: C_15  and  C_18 
REMARK   13  A    between atoms: C_15  and  C_19 
REMARK   14  A    between atoms: C_20  and  C_21 
ROOT
HETATM    1  O   UNL     1      31.926   4.247 -11.555  1.00  0.00    -0.776 OA
HETATM    2  H   UNL     1      32.818   4.551 -11.777  1.00  0.00     0.167 HD
ENDROOT
BRANCH   1   3
HETATM    3  C   UNL     1      30.855   5.056 -11.684  1.00  0.00     0.139 C 
HETATM    4  O   UNL     1      29.728   4.593 -11.578  1.00  0.00    -0.650 OA
BRANCH   3   5
HETATM    5  C   UNL     1      31.074   6.521 -11.958  1.00  0.00     0.110 C 
BRANCH   5   6
HETATM    6  C   UNL     1      30.860   7.404 -10.719  1.00  0.00     0.014 C 
BRANCH   6   7
HETATM    7  C   UNL     1      32.166   8.082 -10.296  1.00  0.00     0.027 C 
BRANCH   7   8
HETATM    8  C   UNL     1      33.345   7.286 -10.793  1.00  0.00    -0.030 C 
HETATM    9  C   UNL     1      34.538   7.802 -11.148  1.00  0.00    -0.027 C 
BRANCH   9  10
HETATM   10  C   UNL     1      34.915   9.261 -11.087  1.00  0.00     0.053 C 
BRANCH  10  11
HETATM   11  C   UNL     1      34.952   9.868 -12.470  1.00  0.00    -0.027 C 
HETATM   12  C   UNL     1      34.039  10.688 -13.027  1.00  0.00    -0.027 C 
BRANCH  12  13
HETATM   13  C   UNL     1      32.764  11.202 -12.402  1.00  0.00     0.053 C 
BRANCH  13  14
HETATM   14  C   UNL     1      31.859  11.717 -13.490  1.00  0.00    -0.027 C 
HETATM   15  C   UNL     1      30.832  11.043 -14.042  1.00  0.00    -0.027 C 
BRANCH  15  16
HETATM   16  C   UNL     1      30.369   9.664 -13.645  1.00  0.00     0.053 C 
BRANCH  16  17
HETATM   17  C   UNL     1      30.127   8.817 -14.876  1.00  0.00    -0.027 C 
HETATM   18  C   UNL     1      31.055   8.287 -15.699  1.00  0.00    -0.027 C 
BRANCH  18  19
HETATM   19  C   UNL     1      32.549   8.427 -15.583  1.00  0.00     0.053 C 
BRANCH  19  20
HETATM   20  C   UNL     1      33.065   7.451 -14.556  1.00  0.00    -0.027 C 
HETATM   21  C   UNL     1      33.482   6.200 -14.825  1.00  0.00    -0.031 C 
BRANCH  21  22
HETATM   22  C   UNL     1      33.488   5.598 -16.207  1.00  0.00     0.022 C 
HETATM   23  C   UNL     1      32.254   4.734 -16.444  1.00  0.00     0.009 C 
ENDBRANCH  21  22
ENDBRANCH  19  20
ENDBRANCH  18  19
ENDBRANCH  16  17
ENDBRANCH  15  16
ENDBRANCH  13  14
ENDBRANCH  12  13
ENDBRANCH  10  11
ENDBRANCH   9  10
ENDBRANCH   7   8
ENDBRANCH   6   7
ENDBRANCH   5   6
ENDBRANCH   3   5
ENDBRANCH   1   3
TORSDOF 14
ENDMDL
MODEL 8
REMARK VINA RESULT:      -4.3      3.054      5.406
REMARK  14 active torsions:
REMARK  status: ('A' for Active; 'I' for Inactive)
REMARK    1  A    between atoms: O_1  and  C_11 
REMARK    2  A    between atoms: C_3  and  C_4 
REMARK    3  A    between atoms: C_3  and  C_5 
REMARK    4  A    between atoms: C_4  and  C_6 
REMARK    5  A    between atoms: C_5  and  C_11 
REMARK    6  A    between atoms: C_7  and  C_8 
REMARK    7  A    between atoms: C_7  and  C_9 
REMARK    8  A    between atoms: C_10  and  C_12 
REMARK    9  A    between atoms: C_10  and  C_14 
REMARK   10  A    between atoms: C_13  and  C_16 
REMARK   11  A    between atoms: C_13  and  C_17 
REMARK   12  A    between atoms: C_15  and  C_18 
REMARK   13  A    between atoms: C_15  and  C_19 
REMARK   14  A    between atoms: C_20  and  C_21 
ROOT
HETATM    1  O   UNL     1      28.609  12.371 -13.116  1.00  0.00    -0.776 OA
HETATM    2  H   UNL     1      28.427  13.320 -13.080  1.00  0.00     0.167 HD
ENDROOT
BRANCH   1   3
HETATM    3  C   UNL     1      28.725  11.720 -14.291  1.00  0.00     0.139 C 
HETATM    4  O   UNL     1      27.967  10.796 -14.550  1.00  0.00    -0.650 OA
BRANCH   3   5
HETATM    5  C   UNL     1      29.792  12.151 -15.264  1.00  0.00     0.110 C 
BRANCH   5   6
HETATM    6  C   UNL     1      29.230  12.899 -16.482  1.00  0.00     0.014 C 
BRANCH   6   7
HETATM    7  C   UNL     1      29.146  11.977 -17.701  1.00  0.00     0.027 C 
BRANCH   7   8
HETATM    8  C   UNL     1      30.528  11.695 -18.232  1.00  0.00    -0.030 C 
HETATM    9  C   UNL     1      31.195  10.533 -18.087  1.00  0.00    -0.027 C 
BRANCH   9  10
HETATM   10  C   UNL     1      30.668   9.300 -17.395  1.00  0.00     0.053 C 
BRANCH  10  11
HETATM   11  C   UNL     1      30.912   8.066 -18.231  1.00  0.00    -0.027 C 
HETATM   12  C   UNL     1      30.773   6.780 -17.850  1.00  0.00    -0.027 C 
BRANCH  12  13
HETATM   13  C   UNL     1      30.332   6.265 -16.500  1.00  0.00     0.053 C 
BRANCH  13  14
HETATM   14  C   UNL     1      31.356   5.283 -15.994  1.00  0.00    -0.027 C 
HETATM   15  C   UNL     1      32.480   5.597 -15.323  1.00  0.00    -0.027 C 
BRANCH  15  16
HETATM   16  C   UNL     1      32.905   6.985 -14.914  1.00  0.00     0.053 C 
BRANCH  16  17
HETATM   17  C   UNL     1      34.391   7.166 -15.133  1.00  0.00    -0.027 C 
HETATM   18  C   UNL     1      34.995   8.047 -15.956  1.00  0.00    -0.027 C 
BRANCH  18  19
HETATM   19  C   UNL     1      34.321   9.050 -16.855  1.00  0.00     0.053 C 
BRANCH  19  20
HETATM   20  C   UNL     1      34.262   8.504 -18.259  1.00  0.00    -0.027 C 
HETATM   21  C   UNL     1      34.480   9.224 -19.374  1.00  0.00    -0.031 C 
BRANCH  21  22
HETATM   22  C   UNL     1      34.817  10.694 -19.370  1.00  0.00     0.022 C 
HETATM   23  C   UNL     1      36.324  10.920 -19.426  1.00  0.00     0.009 C 
ENDBRANCH  21  22
ENDBRANCH  19  20
ENDBRANCH  18  19
ENDBRANCH  16  17
ENDBRANCH  15  16
ENDBRANCH  13  14
ENDBRANCH  12  13
ENDBRANCH  10  11
ENDBRANCH   9  10
ENDBRANCH   7   8
ENDBRANCH   6   7
ENDBRANCH   5   6
ENDBRANCH   3   5
ENDBRANCH   1   3
TORSDOF 14
ENDMDL
MODEL 9
REMARK VINA RESULT:      -4.2      2.165      5.086
REMARK  14 active torsions:
REMARK  status: ('A' for Active; 'I' for Inactive)
REMARK    1  A    between atoms: O_1  and  C_11 
REMARK    2  A    between atoms: C_3  and  C_4 
REMARK    3  A    between atoms: C_3  and  C_5 
REMARK    4  A    between atoms: C_4  and  C_6 
REMARK    5  A    between atoms: C_5  and  C_11 
REMARK    6  A    between atoms: C_7  and  C_8 
REMARK    7  A    between atoms: C_7  and  C_9 
REMARK    8  A    between atoms: C_10  and  C_12 
REMARK    9  A    between atoms: C_10  and  C_14 
REMARK   10  A    between atoms: C_13  and  C_16 
REMARK   11  A    between atoms: C_13  and  C_17 
REMARK   12  A    between atoms: C_15  and  C_18 
REMARK   13  A    between atoms: C_15  and  C_19 
REMARK   14  A    between atoms: C_20  and  C_21 
ROOT
HETATM    1  O   UNL     1      28.579  11.811  -8.965  1.00  0.00    -0.776 OA
HETATM    2  H   UNL     1      28.971  12.553  -9.446  1.00  0.00     0.167 HD
ENDROOT
BRANCH   1   3
HETATM    3  C   UNL     1      28.830  10.533  -9.317  1.00  0.00     0.139 C 
HETATM    4  O   UNL     1      28.091   9.965 -10.108  1.00  0.00    -0.650 OA
BRANCH   3   5
HETATM    5  C   UNL     1      30.024   9.833  -8.723  1.00  0.00     0.110 C 
BRANCH   5   6
HETATM    6  C   UNL     1      31.142   9.576  -9.745  1.00  0.00     0.014 C 
BRANCH   6   7
HETATM    7  C   UNL     1      30.871   8.299 -10.545  1.00  0.00     0.027 C 
BRANCH   7   8
HETATM    8  C   UNL     1      31.247   7.088  -9.730  1.00  0.00    -0.030 C 
HETATM    9  C   UNL     1      31.104   5.809 -10.126  1.00  0.00    -0.027 C 
BRANCH   9  10
HETATM   10  C   UNL     1      30.569   5.359 -11.463  1.00  0.00     0.053 C 
BRANCH  10  11
HETATM   11  C   UNL     1      31.696   5.019 -12.409  1.00  0.00    -0.027 C 
HETATM   12  C   UNL     1      32.126   5.743 -13.462  1.00  0.00    -0.027 C 
BRANCH  12  13
HETATM   13  C   UNL     1      31.589   7.070 -13.944  1.00  0.00     0.053 C 
BRANCH  13  14
HETATM   14  C   UNL     1      30.946   6.877 -15.293  1.00  0.00    -0.027 C 
HETATM   15  C   UNL     1      30.733   7.842 -16.207  1.00  0.00    -0.027 C 
BRANCH  15  16
HETATM   16  C   UNL     1      31.135   9.289 -16.070  1.00  0.00     0.053 C 
BRANCH  16  17
HETATM   17  C   UNL     1      29.907  10.167 -15.960  1.00  0.00    -0.027 C 
HETATM   18  C   UNL     1      29.311  10.601 -14.831  1.00  0.00    -0.027 C 
BRANCH  18  19
HETATM   19  C   UNL     1      29.730  10.301 -13.416  1.00  0.00     0.053 C 
BRANCH  19  20
HETATM   20  C   UNL     1      30.167  11.577 -12.742  1.00  0.00    -0.027 C 
HETATM   21  C   UNL     1      31.417  12.072 -12.769  1.00  0.00    -0.031 C 
BRANCH  21  22
HETATM   22  C   UNL     1      32.566  11.409 -13.487  1.00  0.00     0.022 C 
HETATM   23  C   UNL     1      33.229  10.348 -12.615  1.00  0.00     0.009 C 
ENDBRANCH  21  22
ENDBRANCH  19  20
ENDBRANCH  18  19
ENDBRANCH  16  17
ENDBRANCH  15  16
ENDBRANCH  13  14
ENDBRANCH  12  13
ENDBRANCH  10  11
ENDBRANCH   9  10
ENDBRANCH   7   8
ENDBRANCH   6   7
ENDBRANCH   5   6
ENDBRANCH   3   5
ENDBRANCH   1   3
TORSDOF 14
ENDMDL
MODEL 10
REMARK VINA RESULT:      -4.2      2.704      4.131
REMARK  14 active torsions:
REMARK  status: ('A' for Active; 'I' for Inactive)
REMARK    1  A    between atoms: O_1  and  C_11 
REMARK    2  A    between atoms: C_3  and  C_4 
REMARK    3  A    between atoms: C_3  and  C_5 
REMARK    4  A    between atoms: C_4  and  C_6 
REMARK    5  A    between atoms: C_5  and  C_11 
REMARK    6  A    between atoms: C_7  and  C_8 
REMARK    7  A    between atoms: C_7  and  C_9 
REMARK    8  A    between atoms: C_10  and  C_12 
REMARK    9  A    between atoms: C_10  and  C_14 
REMARK   10  A    between atoms: C_13  and  C_16 
REMARK   11  A    between atoms: C_13  and  C_17 
REMARK   12  A    between atoms: C_15  and  C_18 
REMARK   13  A    between atoms: C_15  and  C_19 
REMARK   14  A    between atoms: C_20  and  C_21 
ROOT
HETATM    1  O   UNL     1      31.161  11.410  -7.514  1.00  0.00    -0.776 OA
HETATM    2  H   UNL     1      31.027  12.304  -7.858  1.00  0.00     0.167 HD
ENDROOT
BRANCH   1   3
HETATM    3  C   UNL     1      30.299  10.411  -7.794  1.00  0.00     0.139 C 
HETATM    4  O   UNL     1      29.188  10.407  -7.284  1.00  0.00    -0.650 OA
BRANCH   3   5
HETATM    5  C   UNL     1      30.730   9.318  -8.737  1.00  0.00     0.110 C 
BRANCH   5   6
HETATM    6  C   UNL     1      31.933   8.516  -8.220  1.00  0.00     0.014 C 
BRANCH   6   7
HETATM    7  C   UNL     1      32.713   7.888  -9.379  1.00  0.00     0.027 C 
BRANCH   7   8
HETATM    8  C   UNL     1      33.071   6.462  -9.047  1.00  0.00    -0.030 C 
HETATM    9  C   UNL     1      32.358   5.377  -9.409  1.00  0.00    -0.027 C 
BRANCH   9  10
HETATM   10  C   UNL     1      31.093   5.392 -10.231  1.00  0.00     0.053 C 
BRANCH  10  11
HETATM   11  C   UNL     1      31.384   5.063 -11.676  1.00  0.00    -0.027 C 
HETATM   12  C   UNL     1      31.308   5.894 -12.735  1.00  0.00    -0.027 C 
BRANCH  12  13
HETATM   13  C   UNL     1      30.921   7.354 -12.731  1.00  0.00     0.053 C 
BRANCH  13  14
HETATM   14  C   UNL     1      32.131   8.181 -13.080  1.00  0.00    -0.027 C 
HETATM   15  C   UNL     1      32.397   8.711 -14.289  1.00  0.00    -0.027 C 
BRANCH  15  16
HETATM   16  C   UNL     1      31.516   8.610 -15.509  1.00  0.00     0.053 C 
BRANCH  16  17
HETATM   17  C   UNL     1      32.211   9.214 -16.710  1.00  0.00    -0.027 C 
HETATM   18  C   UNL     1      33.127   8.626 -17.506  1.00  0.00    -0.027 C 
BRANCH  18  19
HETATM   19  C   UNL     1      33.674   7.229 -17.373  1.00  0.00     0.053 C 
BRANCH  19  20
HETATM   20  C   UNL     1      33.014   6.334 -18.392  1.00  0.00    -0.027 C 
HETATM   21  C   UNL     1      32.199   5.305 -18.100  1.00  0.00    -0.031 C 
BRANCH  21  22
HETATM   22  C   UNL     1      31.830   4.901 -16.694  1.00  0.00     0.022 C 
HETATM   23  C   UNL     1      30.392   5.285 -16.363  1.00  0.00     0.009 C 
ENDBRANCH  21  22
ENDBRANCH  19  20
ENDBRANCH  18  19
ENDBRANCH  16  17
ENDBRANCH  15  16
ENDBRANCH  13  14
ENDBRANCH  12  13
ENDBRANCH  10  11
ENDBRANCH   9  10
ENDBRANCH   7   8
ENDBRANCH   6   7
ENDBRANCH   5   6
ENDBRANCH   3   5
ENDBRANCH   1   3
TORSDOF 14
ENDMDL
MODEL 11
REMARK VINA RESULT:      -4.1     44.488     46.730
REMARK  14 active torsions:
REMARK  status: ('A' for Active; 'I' for Inactive)
REMARK    1  A    between atoms: O_1  and  C_11 
REMARK    2  A    between atoms: C_3  and  C_4 
REMARK    3  A    between atoms: C_3  and  C_5 
REMARK    4  A    between atoms: C_4  and  C_6 
REMARK    5  A    between atoms: C_5  and  C_11 
REMARK    6  A    between atoms: C_7  and  C_8 
REMARK    7  A    between atoms: C_7  and  C_9 
REMARK    8  A    between atoms: C_10  and  C_12 
REMARK    9  A    between atoms: C_10  and  C_14 
REMARK   10  A    between atoms: C_13  and  C_16 
REMARK   11  A    between atoms: C_13  and  C_17 
REMARK   12  A    between atoms: C_15  and  C_18 
REMARK   13  A    between atoms: C_15  and  C_19 
REMARK   14  A    between atoms: C_20  and  C_21 
ROOT
HETATM    1  O   UNL     1     -11.566  11.391  -6.866  1.00  0.00    -0.776 OA
HETATM    2  H   UNL     1     -10.702  11.675  -6.535  1.00  0.00     0.167 HD
ENDROOT
BRANCH   1   3
HETATM    3  C   UNL     1     -12.340  10.534  -6.168  1.00  0.00     0.139 C 
HETATM    4  O   UNL     1     -12.292   9.337  -6.412  1.00  0.00    -0.650 OA
BRANCH   3   5
HETATM    5  C   UNL     1     -13.250  11.078  -5.098  1.00  0.00     0.110 C 
BRANCH   5   6
HETATM    6  C   UNL     1     -14.564  11.646  -5.655  1.00  0.00     0.014 C 
BRANCH   6   7
HETATM    7  C   UNL     1     -14.835  11.118  -7.067  1.00  0.00     0.027 C 
BRANCH   7   8
HETATM    8  C   UNL     1     -16.318  10.959  -7.282  1.00  0.00    -0.030 C 
HETATM    9  C   UNL     1     -16.982  11.296  -8.406  1.00  0.00    -0.027 C 
BRANCH   9  10
HETATM   10  C   UNL     1     -16.358  11.867  -9.654  1.00  0.00     0.053 C 
BRANCH  10  11
HETATM   11  C   UNL     1     -17.366  11.941 -10.777  1.00  0.00    -0.027 C 
HETATM   12  C   UNL     1     -17.571  11.033 -11.752  1.00  0.00    -0.027 C 
BRANCH  12  13
HETATM   13  C   UNL     1     -16.847   9.722 -11.953  1.00  0.00     0.053 C 
BRANCH  13  14
HETATM   14  C   UNL     1     -16.769   9.429 -13.429  1.00  0.00    -0.027 C 
HETATM   15  C   UNL     1     -15.687   8.959 -14.079  1.00  0.00    -0.027 C 
BRANCH  15  16
HETATM   16  C   UNL     1     -14.366   8.599 -13.447  1.00  0.00     0.053 C 
BRANCH  16  17
HETATM   17  C   UNL     1     -13.336   9.670 -13.737  1.00  0.00    -0.027 C 
HETATM   18  C   UNL     1     -12.966  10.687 -12.933  1.00  0.00    -0.027 C 
BRANCH  18  19
HETATM   19  C   UNL     1     -13.503  10.993 -11.559  1.00  0.00     0.053 C 
BRANCH  19  20
HETATM   20  C   UNL     1     -12.656  10.297 -10.524  1.00  0.00    -0.027 C 
HETATM   21  C   UNL     1     -13.071   9.277  -9.751  1.00  0.00    -0.031 C 
BRANCH  21  22
HETATM   22  C   UNL     1     -14.457   8.687  -9.814  1.00  0.00     0.022 C 
HETATM   23  C   UNL     1     -14.708   7.729  -8.654  1.00  0.00     0.009 C 
ENDBRANCH  21  22
ENDBRANCH  19  20
ENDBRANCH  18  19
ENDBRANCH  16  17
ENDBRANCH  15  16
ENDBRANCH  13  14
ENDBRANCH  12  13
ENDBRANCH  10  11
ENDBRANCH   9  10
ENDBRANCH   7   8
ENDBRANCH   6   7
ENDBRANCH   5   6
ENDBRANCH   3   5
ENDBRANCH   1   3
TORSDOF 14
ENDMDL
MODEL 12
REMARK VINA RESULT:      -4.1     45.935     49.026
REMARK  14 active torsions:
REMARK  status: ('A' for Active; 'I' for Inactive)
REMARK    1  A    between atoms: O_1  and  C_11 
REMARK    2  A    between atoms: C_3  and  C_4 
REMARK    3  A    between atoms: C_3  and  C_5 
REMARK    4  A    between atoms: C_4  and  C_6 
REMARK    5  A    between atoms: C_5  and  C_11 
REMARK    6  A    between atoms: C_7  and  C_8 
REMARK    7  A    between atoms: C_7  and  C_9 
REMARK    8  A    between atoms: C_10  and  C_12 
REMARK    9  A    between atoms: C_10  and  C_14 
REMARK   10  A    between atoms: C_13  and  C_16 
REMARK   11  A    between atoms: C_13  and  C_17 
REMARK   12  A    between atoms: C_15  and  C_18 
REMARK   13  A    between atoms: C_15  and  C_19 
REMARK   14  A    between atoms: C_20  and  C_21 
ROOT
HETATM    1  O   UNL     1     -18.771   6.996 -16.553  1.00  0.00    -0.776 OA
HETATM    2  H   UNL     1     -18.793   6.206 -15.994  1.00  0.00     0.167 HD
ENDROOT
BRANCH   1   3
HETATM    3  C   UNL     1     -18.952   8.228 -16.036  1.00  0.00     0.139 C 
HETATM    4  O   UNL     1     -19.915   8.450 -15.316  1.00  0.00    -0.650 OA
BRANCH   3   5
HETATM    5  C   UNL     1     -17.955   9.310 -16.362  1.00  0.00     0.110 C 
BRANCH   5   6
HETATM    6  C   UNL     1     -18.207   9.972 -17.725  1.00  0.00     0.014 C 
BRANCH   6   7
HETATM    7  C   UNL     1     -17.696  11.415 -17.737  1.00  0.00     0.027 C 
BRANCH   7   8
HETATM    8  C   UNL     1     -17.717  11.959 -19.142  1.00  0.00    -0.030 C 
HETATM    9  C   UNL     1     -16.644  12.069 -19.950  1.00  0.00    -0.027 C 
BRANCH   9  10
HETATM   10  C   UNL     1     -15.238  11.644 -19.604  1.00  0.00     0.053 C 
BRANCH  10  11
HETATM   11  C   UNL     1     -14.954  10.251 -20.113  1.00  0.00    -0.027 C 
HETATM   12  C   UNL     1     -14.749   9.138 -19.380  1.00  0.00    -0.027 C 
BRANCH  12  13
HETATM   13  C   UNL     1     -14.760   9.015 -17.875  1.00  0.00     0.053 C 
BRANCH  13  14
HETATM   14  C   UNL     1     -13.419   9.446 -17.339  1.00  0.00    -0.027 C 
HETATM   15  C   UNL     1     -13.194  10.517 -16.556  1.00  0.00    -0.027 C 
BRANCH  15  16
HETATM   16  C   UNL     1     -14.246  11.463 -16.033  1.00  0.00     0.053 C 
BRANCH  16  17
HETATM   17  C   UNL     1     -14.674  11.055 -14.640  1.00  0.00    -0.027 C 
HETATM   18  C   UNL     1     -15.830  11.362 -14.017  1.00  0.00    -0.027 C 
BRANCH  18  19
HETATM   19  C   UNL     1     -16.959  12.192 -14.568  1.00  0.00     0.053 C 
BRANCH  19  20
HETATM   20  C   UNL     1     -18.210  11.929 -13.769  1.00  0.00    -0.027 C 
HETATM   21  C   UNL     1     -19.393  12.539 -13.968  1.00  0.00    -0.031 C 
BRANCH  21  22
HETATM   22  C   UNL     1     -19.629  13.583 -15.030  1.00  0.00     0.022 C 
HETATM   23  C   UNL     1     -20.530  13.054 -16.141  1.00  0.00     0.009 C 
ENDBRANCH  21  22
ENDBRANCH  19  20
ENDBRANCH  18  19
ENDBRANCH  16  17
ENDBRANCH  15  16
ENDBRANCH  13  14
ENDBRANCH  12  13
ENDBRANCH  10  11
ENDBRANCH   9  10
ENDBRANCH   7   8
ENDBRANCH   6   7
ENDBRANCH   5   6
ENDBRANCH   3   5
ENDBRANCH   1   3
TORSDOF 14
ENDMDL
MODEL 13
REMARK VINA RESULT:      -4.1     45.335     48.265
REMARK  14 active torsions:
REMARK  status: ('A' for Active; 'I' for Inactive)
REMARK    1  A    between atoms: O_1  and  C_11 
REMARK    2  A    between atoms: C_3  and  C_4 
REMARK    3  A    between atoms: C_3  and  C_5 
REMARK    4  A    between atoms: C_4  and  C_6 
REMARK    5  A    between atoms: C_5  and  C_11 
REMARK    6  A    between atoms: C_7  and  C_8 
REMARK    7  A    between atoms: C_7  and  C_9 
REMARK    8  A    between atoms: C_10  and  C_12 
REMARK    9  A    between atoms: C_10  and  C_14 
REMARK   10  A    between atoms: C_13  and  C_16 
REMARK   11  A    between atoms: C_13  and  C_17 
REMARK   12  A    between atoms: C_15  and  C_18 
REMARK   13  A    between atoms: C_15  and  C_19 
REMARK   14  A    between atoms: C_20  and  C_21 
ROOT
HETATM    1  O   UNL     1     -13.504   9.608 -12.756  1.00  0.00    -0.776 OA
HETATM    2  H   UNL     1     -13.316   8.701 -12.476  1.00  0.00     0.167 HD
ENDROOT
BRANCH   1   3
HETATM    3  C   UNL     1     -12.823  10.656 -12.250  1.00  0.00     0.139 C 
HETATM    4  O   UNL     1     -11.827  11.069 -12.827  1.00  0.00    -0.650 OA
BRANCH   3   5
HETATM    5  C   UNL     1     -13.311  11.298 -10.977  1.00  0.00     0.110 C 
BRANCH   5   6
HETATM    6  C   UNL     1     -14.409  10.487 -10.274  1.00  0.00     0.014 C 
BRANCH   6   7
HETATM    7  C   UNL     1     -14.062  10.252  -8.802  1.00  0.00     0.027 C 
BRANCH   7   8
HETATM    8  C   UNL     1     -12.732  10.884  -8.478  1.00  0.00    -0.030 C 
HETATM    9  C   UNL     1     -12.180  10.947  -7.250  1.00  0.00    -0.027 C 
BRANCH   9  10
HETATM   10  C   UNL     1     -12.778  10.376  -5.989  1.00  0.00     0.053 C 
BRANCH  10  11
HETATM   11  C   UNL     1     -13.482  11.449  -5.192  1.00  0.00    -0.027 C 
HETATM   12  C   UNL     1     -14.741  11.416  -4.711  1.00  0.00    -0.027 C 
BRANCH  12  13
HETATM   13  C   UNL     1     -15.747  10.297  -4.847  1.00  0.00     0.053 C 
BRANCH  13  14
HETATM   14  C   UNL     1     -16.503  10.475  -6.138  1.00  0.00    -0.027 C 
HETATM   15  C   UNL     1     -17.434  11.418  -6.379  1.00  0.00    -0.027 C 
BRANCH  15  16
HETATM   16  C   UNL     1     -17.863  12.498  -5.419  1.00  0.00     0.053 C 
BRANCH  16  17
HETATM   17  C   UNL     1     -19.305  12.293  -5.007  1.00  0.00    -0.027 C 
HETATM   18  C   UNL     1     -20.410  12.606  -5.714  1.00  0.00    -0.027 C 
BRANCH  18  19
HETATM   19  C   UNL     1     -20.458  13.241  -7.079  1.00  0.00     0.053 C 
BRANCH  19  20
HETATM   20  C   UNL     1     -20.653  12.170  -8.122  1.00  0.00    -0.027 C 
HETATM   21  C   UNL     1     -19.952  12.075  -9.267  1.00  0.00    -0.031 C 
BRANCH  21  22
HETATM   22  C   UNL     1     -18.865  13.040  -9.667  1.00  0.00     0.022 C 
HETATM   23  C   UNL     1     -17.552  12.316  -9.944  1.00  0.00     0.009 C 
ENDBRANCH  21  22
ENDBRANCH  19  20
ENDBRANCH  18  19
ENDBRANCH  16  17
ENDBRANCH  15  16
ENDBRANCH  13  14
ENDBRANCH  12  13
ENDBRANCH  10  11
ENDBRANCH   9  10
ENDBRANCH   7   8
ENDBRANCH   6   7
ENDBRANCH   5   6
ENDBRANCH   3   5
ENDBRANCH   1   3
TORSDOF 14
ENDMDL
MODEL 14
REMARK VINA RESULT:      -4.0     37.766     39.608
REMARK  14 active torsions:
REMARK  status: ('A' for Active; 'I' for Inactive)
REMARK    1  A    between atoms: O_1  and  C_11 
REMARK    2  A    between atoms: C_3  and  C_4 
REMARK    3  A    between atoms: C_3  and  C_5 
REMARK    4  A    between atoms: C_4  and  C_6 
REMARK    5  A    between atoms: C_5  and  C_11 
REMARK    6  A    between atoms: C_7  and  C_8 
REMARK    7  A    between atoms: C_7  and  C_9 
REMARK    8  A    between atoms: C_10  and  C_12 
REMARK    9  A    between atoms: C_10  and  C_14 
REMARK   10  A    between atoms: C_13  and  C_16 
REMARK   11  A    between atoms: C_13  and  C_17 
REMARK   12  A    between atoms: C_15  and  C_18 
REMARK   13  A    between atoms: C_15  and  C_19 
REMARK   14  A    between atoms: C_20  and  C_21 
ROOT
HETATM    1  O   UNL     1      -4.332  15.056 -15.622  1.00  0.00    -0.776 OA
HETATM    2  H   UNL     1      -3.669  14.355 -15.697  1.00  0.00     0.167 HD
ENDROOT
BRANCH   1   3
HETATM    3  C   UNL     1      -5.344  15.166 -16.506  1.00  0.00     0.139 C 
HETATM    4  O   UNL     1      -5.105  15.452 -17.671  1.00  0.00    -0.650 OA
BRANCH   3   5
HETATM    5  C   UNL     1      -6.756  14.933 -16.033  1.00  0.00     0.110 C 
BRANCH   5   6
HETATM    6  C   UNL     1      -7.722  16.054 -16.442  1.00  0.00     0.014 C 
BRANCH   6   7
HETATM    7  C   UNL     1      -8.435  16.637 -15.219  1.00  0.00     0.027 C 
BRANCH   7   8
HETATM    8  C   UNL     1      -7.555  17.662 -14.549  1.00  0.00    -0.030 C 
HETATM    9  C   UNL     1      -7.074  17.572 -13.293  1.00  0.00    -0.027 C 
BRANCH   9  10
HETATM   10  C   UNL     1      -7.307  16.422 -12.345  1.00  0.00     0.053 C 
BRANCH  10  11
HETATM   11  C   UNL     1      -6.136  15.467 -12.357  1.00  0.00    -0.027 C 
HETATM   12  C   UNL     1      -5.578  14.845 -11.299  1.00  0.00    -0.027 C 
BRANCH  12  13
HETATM   13  C   UNL     1      -5.993  14.947  -9.850  1.00  0.00     0.053 C 
BRANCH  13  14
HETATM   14  C   UNL     1      -5.170  16.016  -9.180  1.00  0.00    -0.027 C 
HETATM   15  C   UNL     1      -5.641  17.179  -8.691  1.00  0.00    -0.027 C 
BRANCH  15  16
HETATM   16  C   UNL     1      -7.086  17.611  -8.684  1.00  0.00     0.053 C 
BRANCH  16  17
HETATM   17  C   UNL     1      -7.948  16.553  -8.032  1.00  0.00    -0.027 C 
HETATM   18  C   UNL     1      -8.060  16.287  -6.715  1.00  0.00    -0.027 C 
BRANCH  18  19
HETATM   19  C   UNL     1      -7.342  16.983  -5.589  1.00  0.00     0.053 C 
BRANCH  19  20
HETATM   20  C   UNL     1      -6.195  16.124  -5.120  1.00  0.00    -0.027 C 
HETATM   21  C   UNL     1      -4.917  16.531  -5.025  1.00  0.00    -0.031 C 
BRANCH  21  22
HETATM   22  C   UNL     1      -4.452  17.921  -5.380  1.00  0.00     0.022 C 
HETATM   23  C   UNL     1      -4.840  18.931  -4.306  1.00  0.00     0.009 C 
ENDBRANCH  21  22
ENDBRANCH  19  20
ENDBRANCH  18  19
ENDBRANCH  16  17
ENDBRANCH  15  16
ENDBRANCH  13  14
ENDBRANCH  12  13
ENDBRANCH  10  11
ENDBRANCH   9  10
ENDBRANCH   7   8
ENDBRANCH   6   7
ENDBRANCH   5   6
ENDBRANCH   3   5
ENDBRANCH   1   3
TORSDOF 14
ENDMDL
MODEL 15
REMARK VINA RESULT:      -4.0     46.457     49.470
REMARK  14 active torsions:
REMARK  status: ('A' for Active; 'I' for Inactive)
REMARK    1  A    between atoms: O_1  and  C_11 
REMARK    2  A    between atoms: C_3  and  C_4 
REMARK    3  A    between atoms: C_3  and  C_5 
REMARK    4  A    between atoms: C_4  and  C_6 
REMARK    5  A    between atoms: C_5  and  C_11 
REMARK    6  A    between atoms: C_7  and  C_8 
REMARK    7  A    between atoms: C_7  and  C_9 
REMARK    8  A    between atoms: C_10  and  C_12 
REMARK    9  A    between atoms: C_10  and  C_14 
REMARK   10  A    between atoms: C_13  and  C_16 
REMARK   11  A    between atoms: C_13  and  C_17 
REMARK   12  A    between atoms: C_15  and  C_18 
REMARK   13  A    between atoms: C_15  and  C_19 
REMARK   14  A    between atoms: C_20  and  C_21 
ROOT
HETATM    1  O   UNL     1     -20.772   9.234  -8.677  1.00  0.00    -0.776 OA
HETATM    2  H   UNL     1     -21.643   8.938  -8.376  1.00  0.00     0.167 HD
ENDROOT
BRANCH   1   3
HETATM    3  C   UNL     1     -20.068  10.159  -7.994  1.00  0.00     0.139 C 
HETATM    4  O   UNL     1     -19.474   9.838  -6.973  1.00  0.00    -0.650 OA
BRANCH   3   5
HETATM    5  C   UNL     1     -20.028  11.575  -8.508  1.00  0.00     0.110 C 
BRANCH   5   6
HETATM    6  C   UNL     1     -18.605  12.147  -8.591  1.00  0.00     0.014 C 
BRANCH   6   7
HETATM    7  C   UNL     1     -18.315  12.694  -9.991  1.00  0.00     0.027 C 
BRANCH   7   8
HETATM    8  C   UNL     1     -19.484  13.511 -10.479  1.00  0.00    -0.030 C 
HETATM    9  C   UNL     1     -20.209  13.248 -11.583  1.00  0.00    -0.027 C 
BRANCH   9  10
HETATM   10  C   UNL     1     -20.000  12.078 -12.512  1.00  0.00     0.053 C 
BRANCH  10  11
HETATM   11  C   UNL     1     -19.454  12.537 -13.844  1.00  0.00    -0.027 C 
HETATM   12  C   UNL     1     -18.203  12.366 -14.317  1.00  0.00    -0.027 C 
BRANCH  12  13
HETATM   13  C   UNL     1     -17.050  11.670 -13.633  1.00  0.00     0.053 C 
BRANCH  13  14
HETATM   14  C   UNL     1     -15.846  11.715 -14.537  1.00  0.00    -0.027 C 
HETATM   15  C   UNL     1     -14.710  11.012 -14.367  1.00  0.00    -0.027 C 
BRANCH  15  16
HETATM   16  C   UNL     1     -14.444  10.019 -13.265  1.00  0.00     0.053 C 
BRANCH  16  17
HETATM   17  C   UNL     1     -13.403  10.559 -12.309  1.00  0.00    -0.027 C 
HETATM   18  C   UNL     1     -13.617  11.232 -11.161  1.00  0.00    -0.027 C 
BRANCH  18  19
HETATM   19  C   UNL     1     -14.951  11.607 -10.570  1.00  0.00     0.053 C 
BRANCH  19  20
HETATM   20  C   UNL     1     -15.103  10.951  -9.221  1.00  0.00    -0.027 C 
HETATM   21  C   UNL     1     -15.607   9.721  -9.016  1.00  0.00    -0.031 C 
BRANCH  21  22
HETATM   22  C   UNL     1     -16.096   8.820 -10.122  1.00  0.00     0.022 C 
HETATM   23  C   UNL     1     -17.424   9.308 -10.691  1.00  0.00     0.009 C 
ENDBRANCH  21  22
ENDBRANCH  19  20
ENDBRANCH  18  19
ENDBRANCH  16  17
ENDBRANCH  15  16
ENDBRANCH  13  14
ENDBRANCH  12  13
ENDBRANCH  10  11
ENDBRANCH   9  10
ENDBRANCH   7   8
ENDBRANCH   6   7
ENDBRANCH   5   6
ENDBRANCH   3   5
ENDBRANCH   1   3
TORSDOF 14
ENDMDL
MODEL 16
REMARK VINA RESULT:      -4.0      3.991      6.540
REMARK  14 active torsions:
REMARK  status: ('A' for Active; 'I' for Inactive)
REMARK    1  A    between atoms: O_1  and  C_11 
REMARK    2  A    between atoms: C_3  and  C_4 
REMARK    3  A    between atoms: C_3  and  C_5 
REMARK    4  A    between atoms: C_4  and  C_6 
REMARK    5  A    between atoms: C_5  and  C_11 
REMARK    6  A    between atoms: C_7  and  C_8 
REMARK    7  A    between atoms: C_7  and  C_9 
REMARK    8  A    between atoms: C_10  and  C_12 
REMARK    9  A    between atoms: C_10  and  C_14 
REMARK   10  A    between atoms: C_13  and  C_16 
REMARK   11  A    between atoms: C_13  and  C_17 
REMARK   12  A    between atoms: C_15  and  C_18 
REMARK   13  A    between atoms: C_15  and  C_19 
REMARK   14  A    between atoms: C_20  and  C_21 
ROOT
HETATM    1  O   UNL     1      33.534   6.929  -7.853  1.00  0.00    -0.776 OA
HETATM    2  H   UNL     1      34.204   6.596  -7.240  1.00  0.00     0.167 HD
ENDROOT
BRANCH   1   3
HETATM    3  C   UNL     1      32.635   6.106  -8.429  1.00  0.00     0.139 C 
HETATM    4  O   UNL     1      32.769   4.895  -8.329  1.00  0.00    -0.650 OA
BRANCH   3   5
HETATM    5  C   UNL     1      31.478   6.703  -9.187  1.00  0.00     0.110 C 
BRANCH   5   6
HETATM    6  C   UNL     1      30.906   5.760 -10.256  1.00  0.00     0.014 C 
BRANCH   6   7
HETATM    7  C   UNL     1      31.022   6.377 -11.652  1.00  0.00     0.027 C 
BRANCH   7   8
HETATM    8  C   UNL     1      31.176   5.291 -12.685  1.00  0.00    -0.030 C 
HETATM    9  C   UNL     1      32.071   5.297 -13.693  1.00  0.00    -0.027 C 
BRANCH   9  10
HETATM   10  C   UNL     1      33.094   6.374 -13.950  1.00  0.00     0.053 C 
BRANCH  10  11
HETATM   11  C   UNL     1      33.812   6.135 -15.258  1.00  0.00    -0.027 C 
HETATM   12  C   UNL     1      33.695   6.847 -16.397  1.00  0.00    -0.027 C 
BRANCH  12  13
HETATM   13  C   UNL     1      32.823   8.057 -16.637  1.00  0.00     0.053 C 
BRANCH  13  14
HETATM   14  C   UNL     1      33.059   8.558 -18.038  1.00  0.00    -0.027 C 
HETATM   15  C   UNL     1      32.299   8.274 -19.112  1.00  0.00    -0.027 C 
BRANCH  15  16
HETATM   16  C   UNL     1      31.046   7.435 -19.108  1.00  0.00     0.053 C 
BRANCH  16  17
HETATM   17  C   UNL     1      31.386   5.981 -19.352  1.00  0.00    -0.027 C 
HETATM   18  C   UNL     1      31.001   5.214 -20.392  1.00  0.00    -0.027 C 
BRANCH  18  19
HETATM   19  C   UNL     1      30.135   5.634 -21.551  1.00  0.00     0.053 C 
BRANCH  19  20
HETATM   20  C   UNL     1      30.937   5.565 -22.826  1.00  0.00    -0.027 C 
HETATM   21  C   UNL     1      31.325   6.630 -23.549  1.00  0.00    -0.031 C 
BRANCH  21  22
HETATM   22  C   UNL     1      31.005   8.057 -23.179  1.00  0.00     0.022 C 
HETATM   23  C   UNL     1      32.275   8.876 -22.973  1.00  0.00     0.009 C 
ENDBRANCH  21  22
ENDBRANCH  19  20
ENDBRANCH  18  19
ENDBRANCH  16  17
ENDBRANCH  15  16
ENDBRANCH  13  14
ENDBRANCH  12  13
ENDBRANCH  10  11
ENDBRANCH   9  10
ENDBRANCH   7   8
ENDBRANCH   6   7
ENDBRANCH   5   6
ENDBRANCH   3   5
ENDBRANCH   1   3
TORSDOF 14
ENDMDL
MODEL 17
REMARK VINA RESULT:      -4.0      2.900      4.292
REMARK  14 active torsions:
REMARK  status: ('A' for Active; 'I' for Inactive)
REMARK    1  A    between atoms: O_1  and  C_11 
REMARK    2  A    between atoms: C_3  and  C_4 
REMARK    3  A    between atoms: C_3  and  C_5 
REMARK    4  A    between atoms: C_4  and  C_6 
REMARK    5  A    between atoms: C_5  and  C_11 
REMARK    6  A    between atoms: C_7  and  C_8 
REMARK    7  A    between atoms: C_7  and  C_9 
REMARK    8  A    between atoms: C_10  and  C_12 
REMARK    9  A    between atoms: C_10  and  C_14 
REMARK   10  A    between atoms: C_13  and  C_16 
REMARK   11  A    between atoms: C_13  and  C_17 
REMARK   12  A    between atoms: C_15  and  C_18 
REMARK   13  A    between atoms: C_15  and  C_19 
REMARK   14  A    between atoms: C_20  and  C_21 
ROOT
HETATM    1  O   UNL     1      28.247  13.358 -11.617  1.00  0.00    -0.776 OA
HETATM    2  H   UNL     1      27.817  13.051 -12.428  1.00  0.00     0.167 HD
ENDROOT
BRANCH   1   3
HETATM    3  C   UNL     1      29.135  12.588 -10.956  1.00  0.00     0.139 C 
HETATM    4  O   UNL     1      30.292  12.523 -11.347  1.00  0.00    -0.650 OA
BRANCH   3   5
HETATM    5  C   UNL     1      28.678  11.822  -9.742  1.00  0.00     0.110 C 
BRANCH   5   6
HETATM    6  C   UNL     1      29.725  11.789  -8.619  1.00  0.00     0.014 C 
BRANCH   6   7
HETATM    7  C   UNL     1      29.987  10.354  -8.154  1.00  0.00     0.027 C 
BRANCH   7   8
HETATM    8  C   UNL     1      30.052  10.302  -6.650  1.00  0.00    -0.030 C 
HETATM    9  C   UNL     1      30.462   9.243  -5.925  1.00  0.00    -0.027 C 
BRANCH   9  10
HETATM   10  C   UNL     1      30.952   7.932  -6.487  1.00  0.00     0.053 C 
BRANCH  10  11
HETATM   11  C   UNL     1      32.431   7.756  -6.234  1.00  0.00    -0.027 C 
HETATM   12  C   UNL     1      33.390   7.489  -7.143  1.00  0.00    -0.027 C 
BRANCH  12  13
HETATM   13  C   UNL     1      33.218   7.310  -8.633  1.00  0.00     0.053 C 
BRANCH  13  14
HETATM   14  C   UNL     1      32.935   5.859  -8.921  1.00  0.00    -0.027 C 
HETATM   15  C   UNL     1      31.979   5.395  -9.748  1.00  0.00    -0.027 C 
BRANCH  15  16
HETATM   16  C   UNL     1      31.040   6.240 -10.573  1.00  0.00     0.053 C 
BRANCH  16  17
HETATM   17  C   UNL     1      30.257   5.371 -11.533  1.00  0.00    -0.027 C 
HETATM   18  C   UNL     1      30.585   5.055 -12.803  1.00  0.00    -0.027 C 
BRANCH  18  19
HETATM   19  C   UNL     1      31.809   5.503 -13.557  1.00  0.00     0.053 C 
BRANCH  19  20
HETATM   20  C   UNL     1      31.536   6.835 -14.207  1.00  0.00    -0.027 C 
HETATM   21  C   UNL     1      32.391   7.873 -14.223  1.00  0.00    -0.031 C 
BRANCH  21  22
HETATM   22  C   UNL     1      33.756   7.845 -13.582  1.00  0.00     0.022 C 
HETATM   23  C   UNL     1      33.711   8.375 -12.153  1.00  0.00     0.009 C 
ENDBRANCH  21  22
ENDBRANCH  19  20
ENDBRANCH  18  19
ENDBRANCH  16  17
ENDBRANCH  15  16
ENDBRANCH  13  14
ENDBRANCH  12  13
ENDBRANCH  10  11
ENDBRANCH   9  10
ENDBRANCH   7   8
ENDBRANCH   6   7
ENDBRANCH   5   6
ENDBRANCH   3   5
ENDBRANCH   1   3
TORSDOF 14
ENDMDL
MODEL 18
REMARK VINA RESULT:      -4.0      4.707      7.390
REMARK  14 active torsions:
REMARK  status: ('A' for Active; 'I' for Inactive)
REMARK    1  A    between atoms: O_1  and  C_11 
REMARK    2  A    between atoms: C_3  and  C_4 
REMARK    3  A    between atoms: C_3  and  C_5 
REMARK    4  A    between atoms: C_4  and  C_6 
REMARK    5  A    between atoms: C_5  and  C_11 
REMARK    6  A    between atoms: C_7  and  C_8 
REMARK    7  A    between atoms: C_7  and  C_9 
REMARK    8  A    between atoms: C_10  and  C_12 
REMARK    9  A    between atoms: C_10  and  C_14 
REMARK   10  A    between atoms: C_13  and  C_16 
REMARK   11  A    between atoms: C_13  and  C_17 
REMARK   12  A    between atoms: C_15  and  C_18 
REMARK   13  A    between atoms: C_15  and  C_19 
REMARK   14  A    between atoms: C_20  and  C_21 
ROOT
HETATM    1  O   UNL     1      32.326  11.149  -4.283  1.00  0.00    -0.776 OA
HETATM    2  H   UNL     1      31.582  10.836  -4.817  1.00  0.00     0.167 HD
ENDROOT
BRANCH   1   3
HETATM    3  C   UNL     1      32.873  10.381  -3.319  1.00  0.00     0.139 C 
HETATM    4  O   UNL     1      32.399  10.393  -2.191  1.00  0.00    -0.650 OA
BRANCH   3   5
HETATM    5  C   UNL     1      34.062   9.519  -3.657  1.00  0.00     0.110 C 
BRANCH   5   6
HETATM    6  C   UNL     1      34.565   9.723  -5.093  1.00  0.00     0.014 C 
BRANCH   6   7
HETATM    7  C   UNL     1      34.351   8.462  -5.934  1.00  0.00     0.027 C 
BRANCH   7   8
HETATM    8  C   UNL     1      33.977   7.305  -5.044  1.00  0.00    -0.030 C 
HETATM    9  C   UNL     1      33.506   6.117  -5.470  1.00  0.00    -0.027 C 
BRANCH   9  10
HETATM   10  C   UNL     1      33.293   5.723  -6.910  1.00  0.00     0.053 C 
BRANCH  10  11
HETATM   11  C   UNL     1      31.829   5.480  -7.193  1.00  0.00    -0.027 C 
HETATM   12  C   UNL     1      31.241   5.348  -8.399  1.00  0.00    -0.027 C 
BRANCH  12  13
HETATM   13  C   UNL     1      31.903   5.405  -9.755  1.00  0.00     0.053 C 
BRANCH  13  14
HETATM   14  C   UNL     1      30.838   5.399 -10.820  1.00  0.00    -0.027 C 
HETATM   15  C   UNL     1      30.411   6.475 -11.509  1.00  0.00    -0.027 C 
BRANCH  15  16
HETATM   16  C   UNL     1      30.947   7.878 -11.374  1.00  0.00     0.053 C 
BRANCH  16  17
HETATM   17  C   UNL     1      30.098   8.674 -10.407  1.00  0.00    -0.027 C 
HETATM   18  C   UNL     1      30.445   9.104  -9.177  1.00  0.00    -0.027 C 
BRANCH  18  19
HETATM   19  C   UNL     1      31.761   8.880  -8.481  1.00  0.00     0.053 C 
BRANCH  19  20
HETATM   20  C   UNL     1      32.750   9.925  -8.932  1.00  0.00    -0.027 C 
HETATM   21  C   UNL     1      33.975   9.664  -9.422  1.00  0.00    -0.031 C 
BRANCH  21  22
HETATM   22  C   UNL     1      34.533   8.273  -9.586  1.00  0.00     0.022 C 
HETATM   23  C   UNL     1      34.414   7.792 -11.029  1.00  0.00     0.009 C 
ENDBRANCH  21  22
ENDBRANCH  19  20
ENDBRANCH  18  19
ENDBRANCH  16  17
ENDBRANCH  15  16
ENDBRANCH  13  14
ENDBRANCH  12  13
ENDBRANCH  10  11
ENDBRANCH   9  10
ENDBRANCH   7   8
ENDBRANCH   6   7
ENDBRANCH   5   6
ENDBRANCH   3   5
ENDBRANCH   1   3
TORSDOF 14
ENDMDL
MODEL 19
REMARK VINA RESULT:      -3.9     44.379     46.722
REMARK  14 active torsions:
REMARK  status: ('A' for Active; 'I' for Inactive)
REMARK    1  A    between atoms: O_1  and  C_11 
REMARK    2  A    between atoms: C_3  and  C_4 
REMARK    3  A    between atoms: C_3  and  C_5 
REMARK    4  A    between atoms: C_4  and  C_6 
REMARK    5  A    between atoms: C_5  and  C_11 
REMARK    6  A    between atoms: C_7  and  C_8 
REMARK    7  A    between atoms: C_7  and  C_9 
REMARK    8  A    between atoms: C_10  and  C_12 
REMARK    9  A    between atoms: C_10  and  C_14 
REMARK   10  A    between atoms: C_13  and  C_16 
REMARK   11  A    between atoms: C_13  and  C_17 
REMARK   12  A    between atoms: C_15  and  C_18 
REMARK   13  A    between atoms: C_15  and  C_19 
REMARK   14  A    between atoms: C_20  and  C_21 
ROOT
HETATM    1  O   UNL     1     -14.678   6.924  -9.476  1.00  0.00    -0.776 OA
HETATM    2  H   UNL     1     -15.342   7.481  -9.906  1.00  0.00     0.167 HD
ENDROOT
BRANCH   1   3
HETATM    3  C   UNL     1     -13.502   7.430  -9.052  1.00  0.00     0.139 C 
HETATM    4  O   UNL     1     -12.854   6.832  -8.204  1.00  0.00    -0.650 OA
BRANCH   3   5
HETATM    5  C   UNL     1     -13.011   8.728  -9.638  1.00  0.00     0.110 C 
BRANCH   5   6
HETATM    6  C   UNL     1     -14.054   9.853  -9.568  1.00  0.00     0.014 C 
BRANCH   6   7
HETATM    7  C   UNL     1     -14.215  10.538 -10.928  1.00  0.00     0.027 C 
BRANCH   7   8
HETATM    8  C   UNL     1     -12.870  10.979 -11.446  1.00  0.00    -0.030 C 
HETATM    9  C   UNL     1     -12.448  10.855 -12.720  1.00  0.00    -0.027 C 
BRANCH   9  10
HETATM   10  C   UNL     1     -13.253  10.280 -13.858  1.00  0.00     0.053 C 
BRANCH  10  11
HETATM   11  C   UNL     1     -13.716  11.369 -14.797  1.00  0.00    -0.027 C 
HETATM   12  C   UNL     1     -13.649  11.370 -16.144  1.00  0.00    -0.027 C 
BRANCH  12  13
HETATM   13  C   UNL     1     -13.101  10.282 -17.037  1.00  0.00     0.053 C 
BRANCH  13  14
HETATM   14  C   UNL     1     -12.600  10.904 -18.314  1.00  0.00    -0.027 C 
HETATM   15  C   UNL     1     -13.256  10.919 -19.490  1.00  0.00    -0.027 C 
BRANCH  15  16
HETATM   16  C   UNL     1     -14.631  10.353 -19.740  1.00  0.00     0.053 C 
BRANCH  16  17
HETATM   17  C   UNL     1     -15.654  11.467 -19.801  1.00  0.00    -0.027 C 
HETATM   18  C   UNL     1     -16.589  11.771 -18.878  1.00  0.00    -0.027 C 
BRANCH  18  19
HETATM   19  C   UNL     1     -16.832  11.061 -17.573  1.00  0.00     0.053 C 
BRANCH  19  20
HETATM   20  C   UNL     1     -18.159  11.498 -17.005  1.00  0.00    -0.027 C 
HETATM   21  C   UNL     1     -18.328  12.074 -15.801  1.00  0.00    -0.031 C 
BRANCH  21  22
HETATM   22  C   UNL     1     -17.198  12.364 -14.844  1.00  0.00     0.022 C 
HETATM   23  C   UNL     1     -17.215  11.407 -13.657  1.00  0.00     0.009 C 
ENDBRANCH  21  22
ENDBRANCH  19  20
ENDBRANCH  18  19
ENDBRANCH  16  17
ENDBRANCH  15  16
ENDBRANCH  13  14
ENDBRANCH  12  13
ENDBRANCH  10  11
ENDBRANCH   9  10
ENDBRANCH   7   8
ENDBRANCH   6   7
ENDBRANCH   5   6
ENDBRANCH   3   5
ENDBRANCH   1   3
TORSDOF 14
ENDMDL
MODEL 20
REMARK VINA RESULT:      -3.9      4.707      6.929
REMARK  14 active torsions:
REMARK  status: ('A' for Active; 'I' for Inactive)
REMARK    1  A    between atoms: O_1  and  C_11 
REMARK    2  A    between atoms: C_3  and  C_4 
REMARK    3  A    between atoms: C_3  and  C_5 
REMARK    4  A    between atoms: C_4  and  C_6 
REMARK    5  A    between atoms: C_5  and  C_11 
REMARK    6  A    between atoms: C_7  and  C_8 
REMARK    7  A    between atoms: C_7  and  C_9 
REMARK    8  A    between atoms: C_10  and  C_12 
REMARK    9  A    between atoms: C_10  and  C_14 
REMARK   10  A    between atoms: C_13  and  C_16 
REMARK   11  A    between atoms: C_13  and  C_17 
REMARK   12  A    between atoms: C_15  and  C_18 
REMARK   13  A    between atoms: C_15  and  C_19 
REMARK   14  A    between atoms: C_20  and  C_21 
ROOT
HETATM    1  O   UNL     1      33.432   9.094  -2.216  1.00  0.00    -0.776 OA
HETATM    2  H   UNL     1      34.141   9.350  -2.822  1.00  0.00     0.167 HD
ENDROOT
BRANCH   1   3
HETATM    3  C   UNL     1      32.173   8.887  -2.652  1.00  0.00     0.139 C 
HETATM    4  O   UNL     1      31.300   9.705  -2.398  1.00  0.00    -0.650 OA
BRANCH   3   5
HETATM    5  C   UNL     1      31.871   7.645  -3.449  1.00  0.00     0.110 C 
BRANCH   5   6
HETATM    6  C   UNL     1      33.017   7.235  -4.386  1.00  0.00     0.014 C 
BRANCH   6   7
HETATM    7  C   UNL     1      33.071   5.714  -4.555  1.00  0.00     0.027 C 
BRANCH   7   8
HETATM    8  C   UNL     1      33.538   5.366  -5.945  1.00  0.00    -0.030 C 
HETATM    9  C   UNL     1      32.734   5.118  -6.996  1.00  0.00    -0.027 C 
BRANCH   9  10
HETATM   10  C   UNL     1      31.227   5.171  -6.980  1.00  0.00     0.053 C 
BRANCH  10  11
HETATM   11  C   UNL     1      30.731   6.560  -7.306  1.00  0.00    -0.027 C 
HETATM   12  C   UNL     1      30.886   7.232  -8.464  1.00  0.00    -0.027 C 
BRANCH  12  13
HETATM   13  C   UNL     1      31.586   6.756  -9.715  1.00  0.00     0.053 C 
BRANCH  13  14
HETATM   14  C   UNL     1      30.657   5.848 -10.478  1.00  0.00    -0.027 C 
HETATM   15  C   UNL     1      31.000   5.079 -11.529  1.00  0.00    -0.027 C 
BRANCH  15  16
HETATM   16  C   UNL     1      32.384   4.950 -12.113  1.00  0.00     0.053 C 
BRANCH  16  17
HETATM   17  C   UNL     1      32.368   5.298 -13.586  1.00  0.00    -0.027 C 
HETATM   18  C   UNL     1      32.321   6.529 -14.135  1.00  0.00    -0.027 C 
BRANCH  18  19
HETATM   19  C   UNL     1      32.266   7.843 -13.401  1.00  0.00     0.053 C 
BRANCH  19  20
HETATM   20  C   UNL     1      33.519   8.630 -13.690  1.00  0.00    -0.027 C 
HETATM   21  C   UNL     1      34.383   9.069 -12.758  1.00  0.00    -0.031 C 
BRANCH  21  22
HETATM   22  C   UNL     1      34.214   8.830 -11.279  1.00  0.00     0.022 C 
HETATM   23  C   UNL     1      34.919   7.552 -10.837  1.00  0.00     0.009 C 
ENDBRANCH  21  22
ENDBRANCH  19  20
ENDBRANCH  18  19
ENDBRANCH  16  17
ENDBRANCH  15  16
ENDBRANCH  13  14
ENDBRANCH  12  13
ENDBRANCH  10  11
ENDBRANCH   9  10
ENDBRANCH   7   8
ENDBRANCH   6   7
ENDBRANCH   5   6
ENDBRANCH   3   5
ENDBRANCH   1   3
TORSDOF 14
ENDMDL
