MODEL 1
REMARK VINA RESULT:      -5.0      0.000      0.000
REMARK  19 active torsions:
REMARK  status: ('A' for Active; 'I' for Inactive)
REMARK    1  A    between atoms: O_1  and  C_22 
REMARK    2  A    between atoms: C_3  and  C_4 
REMARK    3  A    between atoms: C_3  and  C_5 
REMARK    4  A    between atoms: C_4  and  C_6 
REMARK    5  A    between atoms: C_5  and  C_7 
REMARK    6  A    between atoms: C_6  and  C_8 
REMARK    7  A    between atoms: C_7  and  C_9 
REMARK    8  A    between atoms: C_8  and  C_10 
REMARK    9  A    between atoms: C_9  and  C_11 
REMARK   10  A    between atoms: C_10  and  C_12 
REMARK   11  A    between atoms: C_11  and  C_13 
REMARK   12  A    between atoms: C_12  and  C_14 
REMARK   13  A    between atoms: C_13  and  C_15 
REMARK   14  A    between atoms: C_14  and  C_16 
REMARK   15  A    between atoms: C_15  and  C_17 
REMARK   16  A    between atoms: C_16  and  C_18 
REMARK   17  A    between atoms: C_17  and  C_19 
REMARK   18  A    between atoms: C_18  and  C_20 
REMARK   19  A    between atoms: C_20  and  C_22 
ROOT
HETATM    1  O   UNL     1      48.902  -7.356 -14.817  1.00  0.00    -0.776 OA
HETATM    2  H   UNL     1      49.605  -6.931 -14.306  1.00  0.00     0.167 HD
ENDROOT
BRANCH   1   3
HETATM    3  C   UNL     1      47.985  -6.632 -15.493  1.00  0.00     0.139 C 
HETATM    4  O   UNL     1      47.019  -6.172 -14.902  1.00  0.00    -0.650 OA
BRANCH   3   5
HETATM    5  C   UNL     1      48.124  -6.420 -16.978  1.00  0.00     0.110 C 
BRANCH   5   6
HETATM    6  C   UNL     1      46.956  -5.634 -17.600  1.00  0.00     0.010 C 
BRANCH   6   7
HETATM    7  C   UNL     1      46.823  -5.727 -19.134  1.00  0.00     0.001 C 
BRANCH   7   8
HETATM    8  C   UNL     1      47.854  -6.645 -19.822  1.00  0.00     0.000 C 
BRANCH   8   9
HETATM    9  C   UNL     1      48.112  -6.336 -21.311  1.00  0.00     0.000 C 
BRANCH   9  10
HETATM   10  C   UNL     1      47.274  -5.181 -21.893  1.00  0.00     0.000 C 
BRANCH  10  11
HETATM   11  C   UNL     1      46.456  -5.537 -23.150  1.00  0.00     0.000 C 
BRANCH  11  12
HETATM   12  C   UNL     1      46.735  -6.935 -23.737  1.00  0.00     0.000 C 
BRANCH  12  13
HETATM   13  C   UNL     1      47.765  -6.969 -24.882  1.00  0.00     0.000 C 
BRANCH  13  14
HETATM   14  C   UNL     1      48.791  -8.117 -24.804  1.00  0.00     0.000 C 
BRANCH  14  15
HETATM   15  C   UNL     1      48.253  -9.433 -24.208  1.00  0.00     0.000 C 
BRANCH  15  16
HETATM   16  C   UNL     1      48.722 -10.715 -24.925  1.00  0.00     0.000 C 
BRANCH  16  17
HETATM   17  C   UNL     1      50.246 -10.954 -24.902  1.00  0.00     0.000 C 
BRANCH  17  18
HETATM   18  C   UNL     1      50.676 -12.434 -24.957  1.00  0.00     0.000 C 
BRANCH  18  19
HETATM   19  C   UNL     1      49.634 -13.394 -25.565  1.00  0.00     0.000 C 
BRANCH  19  20
HETATM   20  C   UNL     1      50.045 -14.041 -26.902  1.00  0.00     0.000 C 
BRANCH  20  21
HETATM   21  C   UNL     1      51.213 -15.045 -26.810  1.00  0.00    -0.000 C 
BRANCH  21  22
HETATM   22  C   UNL     1      50.878 -16.378 -26.117  1.00  0.00    -0.005 C 
HETATM   23  C   UNL     1      51.544 -17.584 -26.777  1.00  0.00     0.005 C 
ENDBRANCH  21  22
ENDBRANCH  20  21
ENDBRANCH  19  20
ENDBRANCH  18  19
ENDBRANCH  17  18
ENDBRANCH  16  17
ENDBRANCH  15  16
ENDBRANCH  14  15
ENDBRANCH  13  14
ENDBRANCH  12  13
ENDBRANCH  11  12
ENDBRANCH  10  11
ENDBRANCH   9  10
ENDBRANCH   8   9
ENDBRANCH   7   8
ENDBRANCH   6   7
ENDBRANCH   5   6
ENDBRANCH   3   5
ENDBRANCH   1   3
TORSDOF 19
ENDMDL
MODEL 2
REMARK VINA RESULT:      -4.8     23.084     25.554
REMARK  19 active torsions:
REMARK  status: ('A' for Active; 'I' for Inactive)
REMARK    1  A    between atoms: O_1  and  C_22 
REMARK    2  A    between atoms: C_3  and  C_4 
REMARK    3  A    between atoms: C_3  and  C_5 
REMARK    4  A    between atoms: C_4  and  C_6 
REMARK    5  A    between atoms: C_5  and  C_7 
REMARK    6  A    between atoms: C_6  and  C_8 
REMARK    7  A    between atoms: C_7  and  C_9 
REMARK    8  A    between atoms: C_8  and  C_10 
REMARK    9  A    between atoms: C_9  and  C_11 
REMARK   10  A    between atoms: C_10  and  C_12 
REMARK   11  A    between atoms: C_11  and  C_13 
REMARK   12  A    between atoms: C_12  and  C_14 
REMARK   13  A    between atoms: C_13  and  C_15 
REMARK   14  A    between atoms: C_14  and  C_16 
REMARK   15  A    between atoms: C_15  and  C_17 
REMARK   16  A    between atoms: C_16  and  C_18 
REMARK   17  A    between atoms: C_17  and  C_19 
REMARK   18  A    between atoms: C_18  and  C_20 
REMARK   19  A    between atoms: C_20  and  C_22 
ROOT
HETATM    1  O   UNL     1      30.676   5.193 -10.920  1.00  0.00    -0.776 OA
HETATM    2  H   UNL     1      30.090   4.453 -10.710  1.00  0.00     0.167 HD
ENDROOT
BRANCH   1   3
HETATM    3  C   UNL     1      31.941   4.993 -11.347  1.00  0.00     0.139 C 
HETATM    4  O   UNL     1      32.822   4.749 -10.537  1.00  0.00    -0.650 OA
BRANCH   3   5
HETATM    5  C   UNL     1      32.280   5.108 -12.809  1.00  0.00     0.110 C 
BRANCH   5   6
HETATM    6  C   UNL     1      31.062   5.401 -13.705  1.00  0.00     0.010 C 
BRANCH   6   7
HETATM    7  C   UNL     1      31.375   5.978 -15.100  1.00  0.00     0.001 C 
BRANCH   7   8
HETATM    8  C   UNL     1      32.379   5.156 -15.934  1.00  0.00     0.000 C 
BRANCH   8   9
HETATM    9  C   UNL     1      32.001   4.975 -17.419  1.00  0.00     0.000 C 
BRANCH   9  10
HETATM   10  C   UNL     1      31.332   6.199 -18.075  1.00  0.00     0.000 C 
BRANCH  10  11
HETATM   11  C   UNL     1      32.174   6.897 -19.162  1.00  0.00     0.000 C 
BRANCH  11  12
HETATM   12  C   UNL     1      33.506   7.499 -18.671  1.00  0.00     0.000 C 
BRANCH  12  13
HETATM   13  C   UNL     1      33.374   8.546 -17.548  1.00  0.00     0.000 C 
BRANCH  13  14
HETATM   14  C   UNL     1      34.676   9.293 -17.195  1.00  0.00     0.000 C 
BRANCH  14  15
HETATM   15  C   UNL     1      35.185   9.072 -15.757  1.00  0.00     0.000 C 
BRANCH  15  16
HETATM   16  C   UNL     1      34.406   8.019 -14.942  1.00  0.00     0.000 C 
BRANCH  16  17
HETATM   17  C   UNL     1      33.539   8.589 -13.800  1.00  0.00     0.000 C 
BRANCH  17  18
HETATM   18  C   UNL     1      34.044   8.274 -12.378  1.00  0.00     0.000 C 
BRANCH  18  19
HETATM   19  C   UNL     1      33.038   8.570 -11.248  1.00  0.00     0.000 C 
BRANCH  19  20
HETATM   20  C   UNL     1      31.561   8.621 -11.686  1.00  0.00     0.000 C 
BRANCH  20  21
HETATM   21  C   UNL     1      30.541   8.696 -10.531  1.00  0.00    -0.000 C 
BRANCH  21  22
HETATM   22  C   UNL     1      31.151   8.728  -9.119  1.00  0.00    -0.005 C 
HETATM   23  C   UNL     1      30.981   7.414  -8.358  1.00  0.00     0.005 C 
ENDBRANCH  21  22
ENDBRANCH  20  21
ENDBRANCH  19  20
ENDBRANCH  18  19
ENDBRANCH  17  18
ENDBRANCH  16  17
ENDBRANCH  15  16
ENDBRANCH  14  15
ENDBRANCH  13  14
ENDBRANCH  12  13
ENDBRANCH  11  12
ENDBRANCH  10  11
ENDBRANCH   9  10
ENDBRANCH   8   9
ENDBRANCH   7   8
ENDBRANCH   6   7
ENDBRANCH   5   6
ENDBRANCH   3   5
ENDBRANCH   1   3
TORSDOF 19
ENDMDL
MODEL 3
REMARK VINA RESULT:      -4.7      3.847      5.003
REMARK  19 active torsions:
REMARK  status: ('A' for Active; 'I' for Inactive)
REMARK    1  A    between atoms: O_1  and  C_22 
REMARK    2  A    between atoms: C_3  and  C_4 
REMARK    3  A    between atoms: C_3  and  C_5 
REMARK    4  A    between atoms: C_4  and  C_6 
REMARK    5  A    between atoms: C_5  and  C_7 
REMARK    6  A    between atoms: C_6  and  C_8 
REMARK    7  A    between atoms: C_7  and  C_9 
REMARK    8  A    between atoms: C_8  and  C_10 
REMARK    9  A    between atoms: C_9  and  C_11 
REMARK   10  A    between atoms: C_10  and  C_12 
REMARK   11  A    between atoms: C_11  and  C_13 
REMARK   12  A    between atoms: C_12  and  C_14 
REMARK   13  A    between atoms: C_13  and  C_15 
REMARK   14  A    between atoms: C_14  and  C_16 
REMARK   15  A    between atoms: C_15  and  C_17 
REMARK   16  A    between atoms: C_16  and  C_18 
REMARK   17  A    between atoms: C_17  and  C_19 
REMARK   18  A    between atoms: C_18  and  C_20 
REMARK   19  A    between atoms: C_20  and  C_22 
ROOT
HETATM    1  O   UNL     1      49.033  -7.339 -14.894  1.00  0.00    -0.776 OA
HETATM    2  H   UNL     1      49.717  -6.833 -14.434  1.00  0.00     0.167 HD
ENDROOT
BRANCH   1   3
HETATM    3  C   UNL     1      48.052  -6.728 -15.592  1.00  0.00     0.139 C 
HETATM    4  O   UNL     1      47.086  -6.267 -15.002  1.00  0.00    -0.650 OA
BRANCH   3   5
HETATM    5  C   UNL     1      48.121  -6.646 -17.093  1.00  0.00     0.110 C 
BRANCH   5   6
HETATM    6  C   UNL     1      46.966  -5.843 -17.721  1.00  0.00     0.010 C 
BRANCH   6   7
HETATM    7  C   UNL     1      46.993  -5.714 -19.257  1.00  0.00     0.001 C 
BRANCH   7   8
HETATM    8  C   UNL     1      47.920  -6.713 -19.978  1.00  0.00     0.000 C 
BRANCH   8   9
HETATM    9  C   UNL     1      48.157  -6.421 -21.474  1.00  0.00     0.000 C 
BRANCH   9  10
HETATM   10  C   UNL     1      47.321  -5.263 -22.054  1.00  0.00     0.000 C 
BRANCH  10  11
HETATM   11  C   UNL     1      46.233  -5.685 -23.062  1.00  0.00     0.000 C 
BRANCH  11  12
HETATM   12  C   UNL     1      46.599  -6.890 -23.951  1.00  0.00     0.000 C 
BRANCH  12  13
HETATM   13  C   UNL     1      47.532  -6.568 -25.135  1.00  0.00     0.000 C 
BRANCH  13  14
HETATM   14  C   UNL     1      48.856  -7.358 -25.155  1.00  0.00     0.000 C 
BRANCH  14  15
HETATM   15  C   UNL     1      49.834  -6.964 -26.281  1.00  0.00     0.000 C 
BRANCH  15  16
HETATM   16  C   UNL     1      50.856  -8.051 -26.668  1.00  0.00     0.000 C 
BRANCH  16  17
HETATM   17  C   UNL     1      51.705  -7.733 -27.916  1.00  0.00     0.000 C 
BRANCH  17  18
HETATM   18  C   UNL     1      53.161  -8.235 -27.861  1.00  0.00     0.000 C 
BRANCH  18  19
HETATM   19  C   UNL     1      53.699  -8.525 -26.445  1.00  0.00     0.000 C 
BRANCH  19  20
HETATM   20  C   UNL     1      55.203  -8.853 -26.372  1.00  0.00     0.000 C 
BRANCH  20  21
HETATM   21  C   UNL     1      56.127  -7.635 -26.166  1.00  0.00    -0.000 C 
BRANCH  21  22
HETATM   22  C   UNL     1      57.194  -7.430 -27.256  1.00  0.00    -0.005 C 
HETATM   23  C   UNL     1      58.059  -6.191 -27.028  1.00  0.00     0.005 C 
ENDBRANCH  21  22
ENDBRANCH  20  21
ENDBRANCH  19  20
ENDBRANCH  18  19
ENDBRANCH  17  18
ENDBRANCH  16  17
ENDBRANCH  15  16
ENDBRANCH  14  15
ENDBRANCH  13  14
ENDBRANCH  12  13
ENDBRANCH  11  12
ENDBRANCH  10  11
ENDBRANCH   9  10
ENDBRANCH   8   9
ENDBRANCH   7   8
ENDBRANCH   6   7
ENDBRANCH   5   6
ENDBRANCH   3   5
ENDBRANCH   1   3
TORSDOF 19
ENDMDL
MODEL 4
REMARK VINA RESULT:      -4.6      5.187      7.510
REMARK  19 active torsions:
REMARK  status: ('A' for Active; 'I' for Inactive)
REMARK    1  A    between atoms: O_1  and  C_22 
REMARK    2  A    between atoms: C_3  and  C_4 
REMARK    3  A    between atoms: C_3  and  C_5 
REMARK    4  A    between atoms: C_4  and  C_6 
REMARK    5  A    between atoms: C_5  and  C_7 
REMARK    6  A    between atoms: C_6  and  C_8 
REMARK    7  A    between atoms: C_7  and  C_9 
REMARK    8  A    between atoms: C_8  and  C_10 
REMARK    9  A    between atoms: C_9  and  C_11 
REMARK   10  A    between atoms: C_10  and  C_12 
REMARK   11  A    between atoms: C_11  and  C_13 
REMARK   12  A    between atoms: C_12  and  C_14 
REMARK   13  A    between atoms: C_13  and  C_15 
REMARK   14  A    between atoms: C_14  and  C_16 
REMARK   15  A    between atoms: C_15  and  C_17 
REMARK   16  A    between atoms: C_16  and  C_18 
REMARK   17  A    between atoms: C_17  and  C_19 
REMARK   18  A    between atoms: C_18  and  C_20 
REMARK   19  A    between atoms: C_20  and  C_22 
ROOT
HETATM    1  O   UNL     1      46.641  -4.104 -16.921  1.00  0.00    -0.776 OA
HETATM    2  H   UNL     1      46.343  -3.425 -16.300  1.00  0.00     0.167 HD
ENDROOT
BRANCH   1   3
HETATM    3  C   UNL     1      47.153  -5.277 -16.492  1.00  0.00     0.139 C 
HETATM    4  O   UNL     1      46.746  -5.771 -15.450  1.00  0.00    -0.650 OA
BRANCH   3   5
HETATM    5  C   UNL     1      48.249  -5.961 -17.265  1.00  0.00     0.110 C 
BRANCH   5   6
HETATM    6  C   UNL     1      47.745  -6.732 -18.499  1.00  0.00     0.010 C 
BRANCH   6   7
HETATM    7  C   UNL     1      47.044  -5.886 -19.581  1.00  0.00     0.001 C 
BRANCH   7   8
HETATM    8  C   UNL     1      47.736  -5.888 -20.959  1.00  0.00     0.000 C 
BRANCH   8   9
HETATM    9  C   UNL     1      47.012  -5.080 -22.055  1.00  0.00     0.000 C 
BRANCH   9  10
HETATM   10  C   UNL     1      47.129  -5.660 -23.478  1.00  0.00     0.000 C 
BRANCH  10  11
HETATM   11  C   UNL     1      46.711  -7.138 -23.617  1.00  0.00     0.000 C 
BRANCH  11  12
HETATM   12  C   UNL     1      45.534  -7.396 -24.580  1.00  0.00     0.000 C 
BRANCH  12  13
HETATM   13  C   UNL     1      44.194  -6.763 -24.157  1.00  0.00     0.000 C 
BRANCH  13  14
HETATM   14  C   UNL     1      43.005  -7.068 -25.089  1.00  0.00     0.000 C 
BRANCH  14  15
HETATM   15  C   UNL     1      41.901  -5.992 -25.112  1.00  0.00     0.000 C 
BRANCH  15  16
HETATM   16  C   UNL     1      41.015  -5.992 -26.375  1.00  0.00     0.000 C 
BRANCH  16  17
HETATM   17  C   UNL     1      40.999  -4.664 -27.159  1.00  0.00     0.000 C 
BRANCH  17  18
HETATM   18  C   UNL     1      42.278  -3.813 -27.029  1.00  0.00     0.000 C 
BRANCH  18  19
HETATM   19  C   UNL     1      43.156  -3.757 -28.295  1.00  0.00     0.000 C 
BRANCH  19  20
HETATM   20  C   UNL     1      44.350  -4.731 -28.304  1.00  0.00     0.000 C 
BRANCH  20  21
HETATM   21  C   UNL     1      45.228  -4.700 -27.036  1.00  0.00    -0.000 C 
BRANCH  21  22
HETATM   22  C   UNL     1      46.683  -4.250 -27.256  1.00  0.00    -0.005 C 
HETATM   23  C   UNL     1      47.696  -5.382 -27.090  1.00  0.00     0.005 C 
ENDBRANCH  21  22
ENDBRANCH  20  21
ENDBRANCH  19  20
ENDBRANCH  18  19
ENDBRANCH  17  18
ENDBRANCH  16  17
ENDBRANCH  15  16
ENDBRANCH  14  15
ENDBRANCH  13  14
ENDBRANCH  12  13
ENDBRANCH  11  12
ENDBRANCH  10  11
ENDBRANCH   9  10
ENDBRANCH   8   9
ENDBRANCH   7   8
ENDBRANCH   6   7
ENDBRANCH   5   6
ENDBRANCH   3   5
ENDBRANCH   1   3
TORSDOF 19
ENDMDL
MODEL 5
REMARK VINA RESULT:      -4.6     66.007     69.149
REMARK  19 active torsions:
REMARK  status: ('A' for Active; 'I' for Inactive)
REMARK    1  A    between atoms: O_1  and  C_22 
REMARK    2  A    between atoms: C_3  and  C_4 
REMARK    3  A    between atoms: C_3  and  C_5 
REMARK    4  A    between atoms: C_4  and  C_6 
REMARK    5  A    between atoms: C_5  and  C_7 
REMARK    6  A    between atoms: C_6  and  C_8 
REMARK    7  A    between atoms: C_7  and  C_9 
REMARK    8  A    between atoms: C_8  and  C_10 
REMARK    9  A    between atoms: C_9  and  C_11 
REMARK   10  A    between atoms: C_10  and  C_12 
REMARK   11  A    between atoms: C_11  and  C_13 
REMARK   12  A    between atoms: C_12  and  C_14 
REMARK   13  A    between atoms: C_13  and  C_15 
REMARK   14  A    between atoms: C_14  and  C_16 
REMARK   15  A    between atoms: C_15  and  C_17 
REMARK   16  A    between atoms: C_16  and  C_18 
REMARK   17  A    between atoms: C_17  and  C_19 
REMARK   18  A    between atoms: C_18  and  C_20 
REMARK   19  A    between atoms: C_20  and  C_22 
ROOT
HETATM    1  O   UNL     1     -21.621  11.475  -9.766  1.00  0.00    -0.776 OA
HETATM    2  H   UNL     1     -22.525  11.132  -9.785  1.00  0.00     0.167 HD
ENDROOT
BRANCH   1   3
HETATM    3  C   UNL     1     -21.287  12.544  -9.013  1.00  0.00     0.139 C 
HETATM    4  O   UNL     1     -22.138  13.094  -8.329  1.00  0.00    -0.650 OA
BRANCH   3   5
HETATM    5  C   UNL     1     -19.883  13.089  -9.041  1.00  0.00     0.110 C 
BRANCH   5   6
HETATM    6  C   UNL     1     -18.799  11.998  -9.110  1.00  0.00     0.010 C 
BRANCH   6   7
HETATM    7  C   UNL     1     -17.424  12.447  -9.646  1.00  0.00     0.001 C 
BRANCH   7   8
HETATM    8  C   UNL     1     -16.292  11.413  -9.480  1.00  0.00     0.000 C 
BRANCH   8   9
HETATM    9  C   UNL     1     -15.023  11.697 -10.310  1.00  0.00     0.000 C 
BRANCH   9  10
HETATM   10  C   UNL     1     -15.071  11.197 -11.767  1.00  0.00     0.000 C 
BRANCH  10  11
HETATM   11  C   UNL     1     -15.861   9.891 -11.984  1.00  0.00     0.000 C 
BRANCH  11  12
HETATM   12  C   UNL     1     -17.020   9.988 -12.995  1.00  0.00     0.000 C 
BRANCH  12  13
HETATM   13  C   UNL     1     -17.643  11.391 -13.140  1.00  0.00     0.000 C 
BRANCH  13  14
HETATM   14  C   UNL     1     -17.393  12.079 -14.497  1.00  0.00     0.000 C 
BRANCH  14  15
HETATM   15  C   UNL     1     -16.390  11.358 -15.419  1.00  0.00     0.000 C 
BRANCH  15  16
HETATM   16  C   UNL     1     -15.019  12.050 -15.561  1.00  0.00     0.000 C 
BRANCH  16  17
HETATM   17  C   UNL     1     -13.805  11.175 -15.188  1.00  0.00     0.000 C 
BRANCH  17  18
HETATM   18  C   UNL     1     -13.658   9.878 -16.010  1.00  0.00     0.000 C 
BRANCH  18  19
HETATM   19  C   UNL     1     -13.023  10.058 -17.403  1.00  0.00     0.000 C 
BRANCH  19  20
HETATM   20  C   UNL     1     -13.496   9.052 -18.471  1.00  0.00     0.000 C 
BRANCH  20  21
HETATM   21  C   UNL     1     -14.524   9.605 -19.480  1.00  0.00    -0.000 C 
BRANCH  21  22
HETATM   22  C   UNL     1     -14.687  11.136 -19.476  1.00  0.00    -0.005 C 
HETATM   23  C   UNL     1     -16.109  11.590 -19.152  1.00  0.00     0.005 C 
ENDBRANCH  21  22
ENDBRANCH  20  21
ENDBRANCH  19  20
ENDBRANCH  18  19
ENDBRANCH  17  18
ENDBRANCH  16  17
ENDBRANCH  15  16
ENDBRANCH  14  15
ENDBRANCH  13  14
ENDBRANCH  12  13
ENDBRANCH  11  12
ENDBRANCH  10  11
ENDBRANCH   9  10
ENDBRANCH   8   9
ENDBRANCH   7   8
ENDBRANCH   6   7
ENDBRANCH   5   6
ENDBRANCH   3   5
ENDBRANCH   1   3
TORSDOF 19
ENDMDL
MODEL 6
REMARK VINA RESULT:      -4.6     23.715     25.439
REMARK  19 active torsions:
REMARK  status: ('A' for Active; 'I' for Inactive)
REMARK    1  A    between atoms: O_1  and  C_22 
REMARK    2  A    between atoms: C_3  and  C_4 
REMARK    3  A    between atoms: C_3  and  C_5 
REMARK    4  A    between atoms: C_4  and  C_6 
REMARK    5  A    between atoms: C_5  and  C_7 
REMARK    6  A    between atoms: C_6  and  C_8 
REMARK    7  A    between atoms: C_7  and  C_9 
REMARK    8  A    between atoms: C_8  and  C_10 
REMARK    9  A    between atoms: C_9  and  C_11 
REMARK   10  A    between atoms: C_10  and  C_12 
REMARK   11  A    between atoms: C_11  and  C_13 
REMARK   12  A    between atoms: C_12  and  C_14 
REMARK   13  A    between atoms: C_13  and  C_15 
REMARK   14  A    between atoms: C_14  and  C_16 
REMARK   15  A    between atoms: C_15  and  C_17 
REMARK   16  A    between atoms: C_16  and  C_18 
REMARK   17  A    between atoms: C_17  and  C_19 
REMARK   18  A    between atoms: C_18  and  C_20 
REMARK   19  A    between atoms: C_20  and  C_22 
ROOT
HETATM    1  O   UNL     1      30.628  10.656 -10.754  1.00  0.00    -0.776 OA
HETATM    2  H   UNL     1      30.280  11.159 -11.504  1.00  0.00     0.167 HD
ENDROOT
BRANCH   1   3
HETATM    3  C   UNL     1      29.964   9.597 -10.245  1.00  0.00     0.139 C 
HETATM    4  O   UNL     1      28.745   9.548 -10.330  1.00  0.00    -0.650 OA
BRANCH   3   5
HETATM    5  C   UNL     1      30.709   8.496  -9.539  1.00  0.00     0.110 C 
BRANCH   5   6
HETATM    6  C   UNL     1      30.633   7.138 -10.261  1.00  0.00     0.010 C 
BRANCH   6   7
HETATM    7  C   UNL     1      31.538   6.024  -9.696  1.00  0.00     0.001 C 
BRANCH   7   8
HETATM    8  C   UNL     1      32.143   5.078 -10.753  1.00  0.00     0.000 C 
BRANCH   8   9
HETATM    9  C   UNL     1      33.519   5.507 -11.301  1.00  0.00     0.000 C 
BRANCH   9  10
HETATM   10  C   UNL     1      34.058   6.838 -10.742  1.00  0.00     0.000 C 
BRANCH  10  11
HETATM   11  C   UNL     1      33.982   8.033 -11.713  1.00  0.00     0.000 C 
BRANCH  11  12
HETATM   12  C   UNL     1      33.194   7.770 -13.012  1.00  0.00     0.000 C 
BRANCH  12  13
HETATM   13  C   UNL     1      34.001   7.950 -14.313  1.00  0.00     0.000 C 
BRANCH  13  14
HETATM   14  C   UNL     1      33.915   6.771 -15.302  1.00  0.00     0.000 C 
BRANCH  14  15
HETATM   15  C   UNL     1      33.196   5.518 -14.763  1.00  0.00     0.000 C 
BRANCH  15  16
HETATM   16  C   UNL     1      31.865   5.177 -15.463  1.00  0.00     0.000 C 
BRANCH  16  17
HETATM   17  C   UNL     1      30.874   6.352 -15.588  1.00  0.00     0.000 C 
BRANCH  17  18
HETATM   18  C   UNL     1      30.544   6.778 -17.033  1.00  0.00     0.000 C 
BRANCH  18  19
HETATM   19  C   UNL     1      30.916   8.232 -17.385  1.00  0.00     0.000 C 
BRANCH  19  20
HETATM   20  C   UNL     1      31.674   8.408 -18.716  1.00  0.00     0.000 C 
BRANCH  20  21
HETATM   21  C   UNL     1      32.870   7.455 -18.916  1.00  0.00    -0.000 C 
BRANCH  21  22
HETATM   22  C   UNL     1      34.248   8.139 -18.988  1.00  0.00    -0.005 C 
HETATM   23  C   UNL     1      34.552   8.739 -20.359  1.00  0.00     0.005 C 
ENDBRANCH  21  22
ENDBRANCH  20  21
ENDBRANCH  19  20
ENDBRANCH  18  19
ENDBRANCH  17  18
ENDBRANCH  16  17
ENDBRANCH  15  16
ENDBRANCH  14  15
ENDBRANCH  13  14
ENDBRANCH  12  13
ENDBRANCH  11  12
ENDBRANCH  10  11
ENDBRANCH   9  10
ENDBRANCH   8   9
ENDBRANCH   7   8
ENDBRANCH   6   7
ENDBRANCH   5   6
ENDBRANCH   3   5
ENDBRANCH   1   3
TORSDOF 19
ENDMDL
MODEL 7
REMARK VINA RESULT:      -4.5     22.633     27.220
REMARK  19 active torsions:
REMARK  status: ('A' for Active; 'I' for Inactive)
REMARK    1  A    between atoms: O_1  and  C_22 
REMARK    2  A    between atoms: C_3  and  C_4 
REMARK    3  A    between atoms: C_3  and  C_5 
REMARK    4  A    between atoms: C_4  and  C_6 
REMARK    5  A    between atoms: C_5  and  C_7 
REMARK    6  A    between atoms: C_6  and  C_8 
REMARK    7  A    between atoms: C_7  and  C_9 
REMARK    8  A    between atoms: C_8  and  C_10 
REMARK    9  A    between atoms: C_9  and  C_11 
REMARK   10  A    between atoms: C_10  and  C_12 
REMARK   11  A    between atoms: C_11  and  C_13 
REMARK   12  A    between atoms: C_12  and  C_14 
REMARK   13  A    between atoms: C_13  and  C_15 
REMARK   14  A    between atoms: C_14  and  C_16 
REMARK   15  A    between atoms: C_15  and  C_17 
REMARK   16  A    between atoms: C_16  and  C_18 
REMARK   17  A    between atoms: C_17  and  C_19 
REMARK   18  A    between atoms: C_18  and  C_20 
REMARK   19  A    between atoms: C_20  and  C_22 
ROOT
HETATM    1  O   UNL     1      32.678   6.842 -20.373  1.00  0.00    -0.776 OA
HETATM    2  H   UNL     1      33.334   7.106 -21.033  1.00  0.00     0.167 HD
ENDROOT
BRANCH   1   3
HETATM    3  C   UNL     1      32.643   5.587 -19.877  1.00  0.00     0.139 C 
HETATM    4  O   UNL     1      32.772   4.633 -20.630  1.00  0.00    -0.650 OA
BRANCH   3   5
HETATM    5  C   UNL     1      32.405   5.354 -18.408  1.00  0.00     0.110 C 
BRANCH   5   6
HETATM    6  C   UNL     1      30.935   5.531 -17.985  1.00  0.00     0.010 C 
BRANCH   6   7
HETATM    7  C   UNL     1      30.574   5.019 -16.576  1.00  0.00     0.001 C 
BRANCH   7   8
HETATM    8  C   UNL     1      31.477   5.543 -15.441  1.00  0.00     0.000 C 
BRANCH   8   9
HETATM    9  C   UNL     1      31.041   6.890 -14.829  1.00  0.00     0.000 C 
BRANCH   9  10
HETATM   10  C   UNL     1      31.661   8.137 -15.488  1.00  0.00     0.000 C 
BRANCH  10  11
HETATM   11  C   UNL     1      33.155   8.011 -15.846  1.00  0.00     0.000 C 
BRANCH  11  12
HETATM   12  C   UNL     1      34.121   8.055 -14.645  1.00  0.00     0.000 C 
BRANCH  12  13
HETATM   13  C   UNL     1      33.783   9.111 -13.574  1.00  0.00     0.000 C 
BRANCH  13  14
HETATM   14  C   UNL     1      34.337  10.523 -13.851  1.00  0.00     0.000 C 
BRANCH  14  15
HETATM   15  C   UNL     1      33.271  11.588 -14.179  1.00  0.00     0.000 C 
BRANCH  15  16
HETATM   16  C   UNL     1      33.083  11.884 -15.681  1.00  0.00     0.000 C 
BRANCH  16  17
HETATM   17  C   UNL     1      31.692  11.528 -16.245  1.00  0.00     0.000 C 
BRANCH  17  18
HETATM   18  C   UNL     1      30.882  12.723 -16.786  1.00  0.00     0.000 C 
BRANCH  18  19
HETATM   19  C   UNL     1      29.354  12.523 -16.797  1.00  0.00     0.000 C 
BRANCH  19  20
HETATM   20  C   UNL     1      28.633  12.925 -15.495  1.00  0.00     0.000 C 
BRANCH  20  21
HETATM   21  C   UNL     1      28.459  11.788 -14.467  1.00  0.00    -0.000 C 
BRANCH  21  22
HETATM   22  C   UNL     1      29.439  11.822 -13.280  1.00  0.00    -0.005 C 
HETATM   23  C   UNL     1      30.056  10.459 -12.968  1.00  0.00     0.005 C 
ENDBRANCH  21  22
ENDBRANCH  20  21
ENDBRANCH  19  20
ENDBRANCH  18  19
ENDBRANCH  17  18
ENDBRANCH  16  17
ENDBRANCH  15  16
ENDBRANCH  14  15
ENDBRANCH  13  14
ENDBRANCH  12  13
ENDBRANCH  11  12
ENDBRANCH  10  11
ENDBRANCH   9  10
ENDBRANCH   8   9
ENDBRANCH   7   8
ENDBRANCH   6   7
ENDBRANCH   5   6
ENDBRANCH   3   5
ENDBRANCH   1   3
TORSDOF 19
ENDMDL
MODEL 8
REMARK VINA RESULT:      -4.5     66.055     69.464
REMARK  19 active torsions:
REMARK  status: ('A' for Active; 'I' for Inactive)
REMARK    1  A    between atoms: O_1  and  C_22 
REMARK    2  A    between atoms: C_3  and  C_4 
REMARK    3  A    between atoms: C_3  and  C_5 
REMARK    4  A    between atoms: C_4  and  C_6 
REMARK    5  A    between atoms: C_5  and  C_7 
REMARK    6  A    between atoms: C_6  and  C_8 
REMARK    7  A    between atoms: C_7  and  C_9 
REMARK    8  A    between atoms: C_8  and  C_10 
REMARK    9  A    between atoms: C_9  and  C_11 
REMARK   10  A    between atoms: C_10  and  C_12 
REMARK   11  A    between atoms: C_11  and  C_13 
REMARK   12  A    between atoms: C_12  and  C_14 
REMARK   13  A    between atoms: C_13  and  C_15 
REMARK   14  A    between atoms: C_14  and  C_16 
REMARK   15  A    between atoms: C_15  and  C_17 
REMARK   16  A    between atoms: C_16  and  C_18 
REMARK   17  A    between atoms: C_17  and  C_19 
REMARK   18  A    between atoms: C_18  and  C_20 
REMARK   19  A    between atoms: C_20  and  C_22 
ROOT
HETATM    1  O   UNL     1     -13.492   8.867 -19.811  1.00  0.00    -0.776 OA
HETATM    2  H   UNL     1     -13.736   8.743 -20.739  1.00  0.00     0.167 HD
ENDROOT
BRANCH   1   3
HETATM    3  C   UNL     1     -13.126  10.075 -19.333  1.00  0.00     0.139 C 
HETATM    4  O   UNL     1     -12.655  10.165 -18.209  1.00  0.00    -0.650 OA
BRANCH   3   5
HETATM    5  C   UNL     1     -13.332  11.317 -20.159  1.00  0.00     0.110 C 
BRANCH   5   6
HETATM    6  C   UNL     1     -14.813  11.698 -20.342  1.00  0.00     0.010 C 
BRANCH   6   7
HETATM    7  C   UNL     1     -15.696  11.595 -19.081  1.00  0.00     0.001 C 
BRANCH   7   8
HETATM    8  C   UNL     1     -17.136  11.105 -19.334  1.00  0.00     0.000 C 
BRANCH   8   9
HETATM    9  C   UNL     1     -18.204  12.216 -19.384  1.00  0.00     0.000 C 
BRANCH   9  10
HETATM   10  C   UNL     1     -19.621  11.779 -18.966  1.00  0.00     0.000 C 
BRANCH  10  11
HETATM   11  C   UNL     1     -20.643  12.925 -18.825  1.00  0.00     0.000 C 
BRANCH  11  12
HETATM   12  C   UNL     1     -20.450  13.824 -17.587  1.00  0.00     0.000 C 
BRANCH  12  13
HETATM   13  C   UNL     1     -20.573  13.102 -16.230  1.00  0.00     0.000 C 
BRANCH  13  14
HETATM   14  C   UNL     1     -19.485  13.460 -15.199  1.00  0.00     0.000 C 
BRANCH  14  15
HETATM   15  C   UNL     1     -18.711  12.257 -14.623  1.00  0.00     0.000 C 
BRANCH  15  16
HETATM   16  C   UNL     1     -17.691  11.615 -15.586  1.00  0.00     0.000 C 
BRANCH  16  17
HETATM   17  C   UNL     1     -16.216  11.744 -15.153  1.00  0.00     0.000 C 
BRANCH  17  18
HETATM   18  C   UNL     1     -15.946  11.458 -13.662  1.00  0.00     0.000 C 
BRANCH  18  19
HETATM   19  C   UNL     1     -16.111   9.985 -13.240  1.00  0.00     0.000 C 
BRANCH  19  20
HETATM   20  C   UNL     1     -16.433   9.764 -11.749  1.00  0.00     0.000 C 
BRANCH  20  21
HETATM   21  C   UNL     1     -17.574  10.640 -11.191  1.00  0.00    -0.000 C 
BRANCH  21  22
HETATM   22  C   UNL     1     -17.125  11.815 -10.304  1.00  0.00    -0.005 C 
HETATM   23  C   UNL     1     -15.638  11.770  -9.952  1.00  0.00     0.005 C 
ENDBRANCH  21  22
ENDBRANCH  20  21
ENDBRANCH  19  20
ENDBRANCH  18  19
ENDBRANCH  17  18
ENDBRANCH  16  17
ENDBRANCH  15  16
ENDBRANCH  14  15
ENDBRANCH  13  14
ENDBRANCH  12  13
ENDBRANCH  11  12
ENDBRANCH  10  11
ENDBRANCH   9  10
ENDBRANCH   8   9
ENDBRANCH   7   8
ENDBRANCH   6   7
ENDBRANCH   5   6
ENDBRANCH   3   5
ENDBRANCH   1   3
TORSDOF 19
ENDMDL
MODEL 9
REMARK VINA RESULT:      -4.5     23.103     25.268
REMARK  19 active torsions:
REMARK  status: ('A' for Active; 'I' for Inactive)
REMARK    1  A    between atoms: O_1  and  C_22 
REMARK    2  A    between atoms: C_3  and  C_4 
REMARK    3  A    between atoms: C_3  and  C_5 
REMARK    4  A    between atoms: C_4  and  C_6 
REMARK    5  A    between atoms: C_5  and  C_7 
REMARK    6  A    between atoms: C_6  and  C_8 
REMARK    7  A    between atoms: C_7  and  C_9 
REMARK    8  A    between atoms: C_8  and  C_10 
REMARK    9  A    between atoms: C_9  and  C_11 
REMARK   10  A    between atoms: C_10  and  C_12 
REMARK   11  A    between atoms: C_11  and  C_13 
REMARK   12  A    between atoms: C_12  and  C_14 
REMARK   13  A    between atoms: C_13  and  C_15 
REMARK   14  A    between atoms: C_14  and  C_16 
REMARK   15  A    between atoms: C_15  and  C_17 
REMARK   16  A    between atoms: C_16  and  C_18 
REMARK   17  A    between atoms: C_17  and  C_19 
REMARK   18  A    between atoms: C_18  and  C_20 
REMARK   19  A    between atoms: C_20  and  C_22 
ROOT
HETATM    1  O   UNL     1      30.633  11.445 -12.945  1.00  0.00    -0.776 OA
HETATM    2  H   UNL     1      30.998  11.852 -12.146  1.00  0.00     0.167 HD
ENDROOT
BRANCH   1   3
HETATM    3  C   UNL     1      29.349  11.642 -13.313  1.00  0.00     0.139 C 
HETATM    4  O   UNL     1      28.626  12.355 -12.633  1.00  0.00    -0.650 OA
BRANCH   3   5
HETATM    5  C   UNL     1      28.792  10.957 -14.532  1.00  0.00     0.110 C 
BRANCH   5   6
HETATM    6  C   UNL     1      29.861  10.251 -15.387  1.00  0.00     0.010 C 
BRANCH   6   7
HETATM    7  C   UNL     1      30.273   8.840 -14.920  1.00  0.00     0.001 C 
BRANCH   7   8
HETATM    8  C   UNL     1      31.792   8.626 -14.757  1.00  0.00     0.000 C 
BRANCH   8   9
HETATM    9  C   UNL     1      32.232   7.156 -14.611  1.00  0.00     0.000 C 
BRANCH   9  10
HETATM   10  C   UNL     1      31.081   6.140 -14.478  1.00  0.00     0.000 C 
BRANCH  10  11
HETATM   11  C   UNL     1      30.960   5.134 -15.640  1.00  0.00     0.000 C 
BRANCH  11  12
HETATM   12  C   UNL     1      31.844   5.442 -16.866  1.00  0.00     0.000 C 
BRANCH  12  13
HETATM   13  C   UNL     1      31.105   6.080 -18.059  1.00  0.00     0.000 C 
BRANCH  13  14
HETATM   14  C   UNL     1      31.452   7.558 -18.327  1.00  0.00     0.000 C 
BRANCH  14  15
HETATM   15  C   UNL     1      32.959   7.863 -18.443  1.00  0.00     0.000 C 
BRANCH  15  16
HETATM   16  C   UNL     1      33.668   7.206 -19.645  1.00  0.00     0.000 C 
BRANCH  16  17
HETATM   17  C   UNL     1      34.734   8.084 -20.332  1.00  0.00     0.000 C 
BRANCH  17  18
HETATM   18  C   UNL     1      34.384   8.535 -21.764  1.00  0.00     0.000 C 
BRANCH  18  19
HETATM   19  C   UNL     1      32.919   8.965 -21.973  1.00  0.00     0.000 C 
BRANCH  19  20
HETATM   20  C   UNL     1      32.059   7.980 -22.790  1.00  0.00     0.000 C 
BRANCH  20  21
HETATM   21  C   UNL     1      30.798   7.461 -22.069  1.00  0.00    -0.000 C 
BRANCH  21  22
HETATM   22  C   UNL     1      30.811   5.961 -21.724  1.00  0.00    -0.005 C 
HETATM   23  C   UNL     1      31.735   5.143 -22.625  1.00  0.00     0.005 C 
ENDBRANCH  21  22
ENDBRANCH  20  21
ENDBRANCH  19  20
ENDBRANCH  18  19
ENDBRANCH  17  18
ENDBRANCH  16  17
ENDBRANCH  15  16
ENDBRANCH  14  15
ENDBRANCH  13  14
ENDBRANCH  12  13
ENDBRANCH  11  12
ENDBRANCH  10  11
ENDBRANCH   9  10
ENDBRANCH   8   9
ENDBRANCH   7   8
ENDBRANCH   6   7
ENDBRANCH   5   6
ENDBRANCH   3   5
ENDBRANCH   1   3
TORSDOF 19
ENDMDL
MODEL 10
REMARK VINA RESULT:      -4.5     66.086     69.465
REMARK  19 active torsions:
REMARK  status: ('A' for Active; 'I' for Inactive)
REMARK    1  A    between atoms: O_1  and  C_22 
REMARK    2  A    between atoms: C_3  and  C_4 
REMARK    3  A    between atoms: C_3  and  C_5 
REMARK    4  A    between atoms: C_4  and  C_6 
REMARK    5  A    between atoms: C_5  and  C_7 
REMARK    6  A    between atoms: C_6  and  C_8 
REMARK    7  A    between atoms: C_7  and  C_9 
REMARK    8  A    between atoms: C_8  and  C_10 
REMARK    9  A    between atoms: C_9  and  C_11 
REMARK   10  A    between atoms: C_10  and  C_12 
REMARK   11  A    between atoms: C_11  and  C_13 
REMARK   12  A    between atoms: C_12  and  C_14 
REMARK   13  A    between atoms: C_13  and  C_15 
REMARK   14  A    between atoms: C_14  and  C_16 
REMARK   15  A    between atoms: C_15  and  C_17 
REMARK   16  A    between atoms: C_16  and  C_18 
REMARK   17  A    between atoms: C_17  and  C_19 
REMARK   18  A    between atoms: C_18  and  C_20 
REMARK   19  A    between atoms: C_20  and  C_22 
ROOT
HETATM    1  O   UNL     1     -12.782   6.896 -15.788  1.00  0.00    -0.776 OA
HETATM    2  H   UNL     1     -12.183   6.390 -15.221  1.00  0.00     0.167 HD
ENDROOT
BRANCH   1   3
HETATM    3  C   UNL     1     -12.992   8.215 -15.591  1.00  0.00     0.139 C 
HETATM    4  O   UNL     1     -12.388   9.033 -16.270  1.00  0.00    -0.650 OA
BRANCH   3   5
HETATM    5  C   UNL     1     -13.934   8.686 -14.516  1.00  0.00     0.110 C 
BRANCH   5   6
HETATM    6  C   UNL     1     -13.622  10.102 -13.998  1.00  0.00     0.010 C 
BRANCH   6   7
HETATM    7  C   UNL     1     -14.828  11.055 -13.872  1.00  0.00     0.001 C 
BRANCH   7   8
HETATM    8  C   UNL     1     -15.644  10.902 -12.572  1.00  0.00     0.000 C 
BRANCH   8   9
HETATM    9  C   UNL     1     -14.810  10.608 -11.309  1.00  0.00     0.000 C 
BRANCH   9  10
HETATM   10  C   UNL     1     -15.189  11.438 -10.067  1.00  0.00     0.000 C 
BRANCH  10  11
HETATM   11  C   UNL     1     -16.491  12.254 -10.200  1.00  0.00     0.000 C 
BRANCH  11  12
HETATM   12  C   UNL     1     -17.609  11.865  -9.212  1.00  0.00     0.000 C 
BRANCH  12  13
HETATM   13  C   UNL     1     -19.040  12.179  -9.690  1.00  0.00     0.000 C 
BRANCH  13  14
HETATM   14  C   UNL     1     -19.136  13.217 -10.826  1.00  0.00     0.000 C 
BRANCH  14  15
HETATM   15  C   UNL     1     -20.434  13.157 -11.656  1.00  0.00     0.000 C 
BRANCH  15  16
HETATM   16  C   UNL     1     -20.254  12.705 -13.119  1.00  0.00     0.000 C 
BRANCH  16  17
HETATM   17  C   UNL     1     -18.856  12.150 -13.463  1.00  0.00     0.000 C 
BRANCH  17  18
HETATM   18  C   UNL     1     -18.215  12.736 -14.736  1.00  0.00     0.000 C 
BRANCH  18  19
HETATM   19  C   UNL     1     -17.975  11.722 -15.872  1.00  0.00     0.000 C 
BRANCH  19  20
HETATM   20  C   UNL     1     -18.911  11.870 -17.088  1.00  0.00     0.000 C 
BRANCH  20  21
HETATM   21  C   UNL     1     -18.313  11.404 -18.432  1.00  0.00    -0.000 C 
BRANCH  21  22
HETATM   22  C   UNL     1     -17.990  12.530 -19.430  1.00  0.00    -0.005 C 
HETATM   23  C   UNL     1     -19.221  13.052 -20.169  1.00  0.00     0.005 C 
ENDBRANCH  21  22
ENDBRANCH  20  21
ENDBRANCH  19  20
ENDBRANCH  18  19
ENDBRANCH  17  18
ENDBRANCH  16  17
ENDBRANCH  15  16
ENDBRANCH  14  15
ENDBRANCH  13  14
ENDBRANCH  12  13
ENDBRANCH  11  12
ENDBRANCH  10  11
ENDBRANCH   9  10
ENDBRANCH   8   9
ENDBRANCH   7   8
ENDBRANCH   6   7
ENDBRANCH   5   6
ENDBRANCH   3   5
ENDBRANCH   1   3
TORSDOF 19
ENDMDL
MODEL 11
REMARK VINA RESULT:      -4.5     22.618     26.994
REMARK  19 active torsions:
REMARK  status: ('A' for Active; 'I' for Inactive)
REMARK    1  A    between atoms: O_1  and  C_22 
REMARK    2  A    between atoms: C_3  and  C_4 
REMARK    3  A    between atoms: C_3  and  C_5 
REMARK    4  A    between atoms: C_4  and  C_6 
REMARK    5  A    between atoms: C_5  and  C_7 
REMARK    6  A    between atoms: C_6  and  C_8 
REMARK    7  A    between atoms: C_7  and  C_9 
REMARK    8  A    between atoms: C_8  and  C_10 
REMARK    9  A    between atoms: C_9  and  C_11 
REMARK   10  A    between atoms: C_10  and  C_12 
REMARK   11  A    between atoms: C_11  and  C_13 
REMARK   12  A    between atoms: C_12  and  C_14 
REMARK   13  A    between atoms: C_13  and  C_15 
REMARK   14  A    between atoms: C_14  and  C_16 
REMARK   15  A    between atoms: C_15  and  C_17 
REMARK   16  A    between atoms: C_16  and  C_18 
REMARK   17  A    between atoms: C_17  and  C_19 
REMARK   18  A    between atoms: C_18  and  C_20 
REMARK   19  A    between atoms: C_20  and  C_22 
ROOT
HETATM    1  O   UNL     1      32.655   6.745 -20.443  1.00  0.00    -0.776 OA
HETATM    2  H   UNL     1      33.275   6.970 -21.152  1.00  0.00     0.167 HD
ENDROOT
BRANCH   1   3
HETATM    3  C   UNL     1      32.576   5.494 -19.944  1.00  0.00     0.139 C 
HETATM    4  O   UNL     1      32.730   4.534 -20.686  1.00  0.00    -0.650 OA
BRANCH   3   5
HETATM    5  C   UNL     1      32.260   5.270 -18.489  1.00  0.00     0.110 C 
BRANCH   5   6
HETATM    6  C   UNL     1      30.777   5.491 -18.139  1.00  0.00     0.010 C 
BRANCH   6   7
HETATM    7  C   UNL     1      30.390   5.254 -16.665  1.00  0.00     0.001 C 
BRANCH   7   8
HETATM    8  C   UNL     1      31.199   6.075 -15.640  1.00  0.00     0.000 C 
BRANCH   8   9
HETATM    9  C   UNL     1      30.783   7.555 -15.516  1.00  0.00     0.000 C 
BRANCH   9  10
HETATM   10  C   UNL     1      31.637   8.544 -16.334  1.00  0.00     0.000 C 
BRANCH  10  11
HETATM   11  C   UNL     1      33.140   8.209 -16.399  1.00  0.00     0.000 C 
BRANCH  11  12
HETATM   12  C   UNL     1      33.919   8.447 -15.090  1.00  0.00     0.000 C 
BRANCH  12  13
HETATM   13  C   UNL     1      33.509   9.710 -14.306  1.00  0.00     0.000 C 
BRANCH  13  14
HETATM   14  C   UNL     1      34.256  10.998 -14.707  1.00  0.00     0.000 C 
BRANCH  14  15
HETATM   15  C   UNL     1      33.378  12.085 -15.359  1.00  0.00     0.000 C 
BRANCH  15  16
HETATM   16  C   UNL     1      33.391  12.096 -16.901  1.00  0.00     0.000 C 
BRANCH  16  17
HETATM   17  C   UNL     1      31.999  12.140 -17.564  1.00  0.00     0.000 C 
BRANCH  17  18
HETATM   18  C   UNL     1      30.838  12.517 -16.622  1.00  0.00     0.000 C 
BRANCH  18  19
HETATM   19  C   UNL     1      29.468  11.925 -17.005  1.00  0.00     0.000 C 
BRANCH  19  20
HETATM   20  C   UNL     1      29.436  11.166 -18.346  1.00  0.00     0.000 C 
BRANCH  20  21
HETATM   21  C   UNL     1      28.504  11.770 -19.416  1.00  0.00    -0.000 C 
BRANCH  21  22
HETATM   22  C   UNL     1      29.217  12.443 -20.602  1.00  0.00    -0.005 C 
HETATM   23  C   UNL     1      28.412  13.585 -21.221  1.00  0.00     0.005 C 
ENDBRANCH  21  22
ENDBRANCH  20  21
ENDBRANCH  19  20
ENDBRANCH  18  19
ENDBRANCH  17  18
ENDBRANCH  16  17
ENDBRANCH  15  16
ENDBRANCH  14  15
ENDBRANCH  13  14
ENDBRANCH  12  13
ENDBRANCH  11  12
ENDBRANCH  10  11
ENDBRANCH   9  10
ENDBRANCH   8   9
ENDBRANCH   7   8
ENDBRANCH   6   7
ENDBRANCH   5   6
ENDBRANCH   3   5
ENDBRANCH   1   3
TORSDOF 19
ENDMDL
MODEL 12
REMARK VINA RESULT:      -4.5     65.761     69.159
REMARK  19 active torsions:
REMARK  status: ('A' for Active; 'I' for Inactive)
REMARK    1  A    between atoms: O_1  and  C_22 
REMARK    2  A    between atoms: C_3  and  C_4 
REMARK    3  A    between atoms: C_3  and  C_5 
REMARK    4  A    between atoms: C_4  and  C_6 
REMARK    5  A    between atoms: C_5  and  C_7 
REMARK    6  A    between atoms: C_6  and  C_8 
REMARK    7  A    between atoms: C_7  and  C_9 
REMARK    8  A    between atoms: C_8  and  C_10 
REMARK    9  A    between atoms: C_9  and  C_11 
REMARK   10  A    between atoms: C_10  and  C_12 
REMARK   11  A    between atoms: C_11  and  C_13 
REMARK   12  A    between atoms: C_12  and  C_14 
REMARK   13  A    between atoms: C_13  and  C_15 
REMARK   14  A    between atoms: C_14  and  C_16 
REMARK   15  A    between atoms: C_15  and  C_17 
REMARK   16  A    between atoms: C_16  and  C_18 
REMARK   17  A    between atoms: C_17  and  C_19 
REMARK   18  A    between atoms: C_18  and  C_20 
REMARK   19  A    between atoms: C_20  and  C_22 
ROOT
HETATM    1  O   UNL     1     -21.011  10.938 -17.196  1.00  0.00    -0.776 OA
HETATM    2  H   UNL     1     -21.826  10.878 -17.715  1.00  0.00     0.167 HD
ENDROOT
BRANCH   1   3
HETATM    3  C   UNL     1     -20.384  12.117 -17.002  1.00  0.00     0.139 C 
HETATM    4  O   UNL     1     -20.064  12.456 -15.872  1.00  0.00    -0.650 OA
BRANCH   3   5
HETATM    5  C   UNL     1     -20.111  13.037 -18.163  1.00  0.00     0.110 C 
BRANCH   5   6
HETATM    6  C   UNL     1     -19.060  12.492 -19.148  1.00  0.00     0.010 C 
BRANCH   6   7
HETATM    7  C   UNL     1     -17.846  11.782 -18.513  1.00  0.00     0.001 C 
BRANCH   7   8
HETATM    8  C   UNL     1     -16.553  11.831 -19.351  1.00  0.00     0.000 C 
BRANCH   8   9
HETATM    9  C   UNL     1     -15.840  10.475 -19.530  1.00  0.00     0.000 C 
BRANCH   9  10
HETATM   10  C   UNL     1     -15.153   9.927 -18.264  1.00  0.00     0.000 C 
BRANCH  10  11
HETATM   11  C   UNL     1     -13.686   9.493 -18.454  1.00  0.00     0.000 C 
BRANCH  11  12
HETATM   12  C   UNL     1     -12.669  10.648 -18.548  1.00  0.00     0.000 C 
BRANCH  12  13
HETATM   13  C   UNL     1     -12.249  11.259 -17.197  1.00  0.00     0.000 C 
BRANCH  13  14
HETATM   14  C   UNL     1     -12.454  10.343 -15.974  1.00  0.00     0.000 C 
BRANCH  14  15
HETATM   15  C   UNL     1     -13.032  11.040 -14.726  1.00  0.00     0.000 C 
BRANCH  15  16
HETATM   16  C   UNL     1     -14.553  10.877 -14.533  1.00  0.00     0.000 C 
BRANCH  16  17
HETATM   17  C   UNL     1     -15.424  11.810 -15.398  1.00  0.00     0.000 C 
BRANCH  17  18
HETATM   18  C   UNL     1     -16.793  12.177 -14.790  1.00  0.00     0.000 C 
BRANCH  18  19
HETATM   19  C   UNL     1     -17.189  11.367 -13.540  1.00  0.00     0.000 C 
BRANCH  19  20
HETATM   20  C   UNL     1     -18.441  11.879 -12.800  1.00  0.00     0.000 C 
BRANCH  20  21
HETATM   21  C   UNL     1     -18.363  11.809 -11.261  1.00  0.00    -0.000 C 
BRANCH  21  22
HETATM   22  C   UNL     1     -17.126  11.085 -10.699  1.00  0.00    -0.005 C 
HETATM   23  C   UNL     1     -16.421  11.867  -9.592  1.00  0.00     0.005 C 
ENDBRANCH  21  22
ENDBRANCH  20  21
ENDBRANCH  19  20
ENDBRANCH  18  19
ENDBRANCH  17  18
ENDBRANCH  16  17
ENDBRANCH  15  16
ENDBRANCH  14  15
ENDBRANCH  13  14
ENDBRANCH  12  13
ENDBRANCH  11  12
ENDBRANCH  10  11
ENDBRANCH   9  10
ENDBRANCH   8   9
ENDBRANCH   7   8
ENDBRANCH   6   7
ENDBRANCH   5   6
ENDBRANCH   3   5
ENDBRANCH   1   3
TORSDOF 19
ENDMDL
MODEL 13
REMARK VINA RESULT:      -4.4     23.240     26.458
REMARK  19 active torsions:
REMARK  status: ('A' for Active; 'I' for Inactive)
REMARK    1  A    between atoms: O_1  and  C_22 
REMARK    2  A    between atoms: C_3  and  C_4 
REMARK    3  A    between atoms: C_3  and  C_5 
REMARK    4  A    between atoms: C_4  and  C_6 
REMARK    5  A    between atoms: C_5  and  C_7 
REMARK    6  A    between atoms: C_6  and  C_8 
REMARK    7  A    between atoms: C_7  and  C_9 
REMARK    8  A    between atoms: C_8  and  C_10 
REMARK    9  A    between atoms: C_9  and  C_11 
REMARK   10  A    between atoms: C_10  and  C_12 
REMARK   11  A    between atoms: C_11  and  C_13 
REMARK   12  A    between atoms: C_12  and  C_14 
REMARK   13  A    between atoms: C_13  and  C_15 
REMARK   14  A    between atoms: C_14  and  C_16 
REMARK   15  A    between atoms: C_15  and  C_17 
REMARK   16  A    between atoms: C_16  and  C_18 
REMARK   17  A    between atoms: C_17  and  C_19 
REMARK   18  A    between atoms: C_18  and  C_20 
REMARK   19  A    between atoms: C_20  and  C_22 
ROOT
HETATM    1  O   UNL     1      28.019  10.638  -9.277  1.00  0.00    -0.776 OA
HETATM    2  H   UNL     1      28.031  10.652  -8.309  1.00  0.00     0.167 HD
ENDROOT
BRANCH   1   3
HETATM    3  C   UNL     1      29.139  10.403  -9.992  1.00  0.00     0.139 C 
HETATM    4  O   UNL     1      29.052   9.944 -11.122  1.00  0.00    -0.650 OA
BRANCH   3   5
HETATM    5  C   UNL     1      30.496  10.665  -9.394  1.00  0.00     0.110 C 
BRANCH   5   6
HETATM    6  C   UNL     1      31.208   9.394  -8.898  1.00  0.00     0.010 C 
BRANCH   6   7
HETATM    7  C   UNL     1      31.076   9.092  -7.391  1.00  0.00     0.001 C 
BRANCH   7   8
HETATM    8  C   UNL     1      30.671   7.643  -7.051  1.00  0.00     0.000 C 
BRANCH   8   9
HETATM    9  C   UNL     1      31.070   6.589  -8.103  1.00  0.00     0.000 C 
BRANCH   9  10
HETATM   10  C   UNL     1      32.579   6.285  -8.182  1.00  0.00     0.000 C 
BRANCH  10  11
HETATM   11  C   UNL     1      33.031   5.553  -9.461  1.00  0.00     0.000 C 
BRANCH  11  12
HETATM   12  C   UNL     1      33.113   6.433 -10.724  1.00  0.00     0.000 C 
BRANCH  12  13
HETATM   13  C   UNL     1      34.391   7.288 -10.842  1.00  0.00     0.000 C 
BRANCH  13  14
HETATM   14  C   UNL     1      34.159   8.756 -11.249  1.00  0.00     0.000 C 
BRANCH  14  15
HETATM   15  C   UNL     1      34.092   9.009 -12.769  1.00  0.00     0.000 C 
BRANCH  15  16
HETATM   16  C   UNL     1      33.787   7.764 -13.625  1.00  0.00     0.000 C 
BRANCH  16  17
HETATM   17  C   UNL     1      34.100   7.914 -15.128  1.00  0.00     0.000 C 
BRANCH  17  18
HETATM   18  C   UNL     1      32.991   7.422 -16.079  1.00  0.00     0.000 C 
BRANCH  18  19
HETATM   19  C   UNL     1      31.593   7.298 -15.441  1.00  0.00     0.000 C 
BRANCH  19  20
HETATM   20  C   UNL     1      30.597   6.413 -16.216  1.00  0.00     0.000 C 
BRANCH  20  21
HETATM   21  C   UNL     1      31.237   5.267 -17.028  1.00  0.00    -0.000 C 
BRANCH  21  22
HETATM   22  C   UNL     1      31.118   5.401 -18.557  1.00  0.00    -0.005 C 
HETATM   23  C   UNL     1      32.469   5.399 -19.269  1.00  0.00     0.005 C 
ENDBRANCH  21  22
ENDBRANCH  20  21
ENDBRANCH  19  20
ENDBRANCH  18  19
ENDBRANCH  17  18
ENDBRANCH  16  17
ENDBRANCH  15  16
ENDBRANCH  14  15
ENDBRANCH  13  14
ENDBRANCH  12  13
ENDBRANCH  11  12
ENDBRANCH  10  11
ENDBRANCH   9  10
ENDBRANCH   8   9
ENDBRANCH   7   8
ENDBRANCH   6   7
ENDBRANCH   5   6
ENDBRANCH   3   5
ENDBRANCH   1   3
TORSDOF 19
ENDMDL
MODEL 14
REMARK VINA RESULT:      -4.3     23.432     26.534
REMARK  19 active torsions:
REMARK  status: ('A' for Active; 'I' for Inactive)
REMARK    1  A    between atoms: O_1  and  C_22 
REMARK    2  A    between atoms: C_3  and  C_4 
REMARK    3  A    between atoms: C_3  and  C_5 
REMARK    4  A    between atoms: C_4  and  C_6 
REMARK    5  A    between atoms: C_5  and  C_7 
REMARK    6  A    between atoms: C_6  and  C_8 
REMARK    7  A    between atoms: C_7  and  C_9 
REMARK    8  A    between atoms: C_8  and  C_10 
REMARK    9  A    between atoms: C_9  and  C_11 
REMARK   10  A    between atoms: C_10  and  C_12 
REMARK   11  A    between atoms: C_11  and  C_13 
REMARK   12  A    between atoms: C_12  and  C_14 
REMARK   13  A    between atoms: C_13  and  C_15 
REMARK   14  A    between atoms: C_14  and  C_16 
REMARK   15  A    between atoms: C_15  and  C_17 
REMARK   16  A    between atoms: C_16  and  C_18 
REMARK   17  A    between atoms: C_17  and  C_19 
REMARK   18  A    between atoms: C_18  and  C_20 
REMARK   19  A    between atoms: C_20  and  C_22 
ROOT
HETATM    1  O   UNL     1      28.625  10.354 -20.389  1.00  0.00    -0.776 OA
HETATM    2  H   UNL     1      29.162  10.630 -21.145  1.00  0.00     0.167 HD
ENDROOT
BRANCH   1   3
HETATM    3  C   UNL     1      29.159  10.219 -19.156  1.00  0.00     0.139 C 
HETATM    4  O   UNL     1      28.682  10.840 -18.218  1.00  0.00    -0.650 OA
BRANCH   3   5
HETATM    5  C   UNL     1      30.361   9.339 -18.937  1.00  0.00     0.110 C 
BRANCH   5   6
HETATM    6  C   UNL     1      31.035   8.880 -20.243  1.00  0.00     0.010 C 
BRANCH   6   7
HETATM    7  C   UNL     1      32.057   7.732 -20.106  1.00  0.00     0.001 C 
BRANCH   7   8
HETATM    8  C   UNL     1      32.870   7.738 -18.796  1.00  0.00     0.000 C 
BRANCH   8   9
HETATM    9  C   UNL     1      32.634   6.523 -17.876  1.00  0.00     0.000 C 
BRANCH   9  10
HETATM   10  C   UNL     1      33.453   6.525 -16.570  1.00  0.00     0.000 C 
BRANCH  10  11
HETATM   11  C   UNL     1      33.359   5.229 -15.739  1.00  0.00     0.000 C 
BRANCH  11  12
HETATM   12  C   UNL     1      32.732   5.394 -14.340  1.00  0.00     0.000 C 
BRANCH  12  13
HETATM   13  C   UNL     1      31.249   5.814 -14.336  1.00  0.00     0.000 C 
BRANCH  13  14
HETATM   14  C   UNL     1      30.885   6.915 -13.320  1.00  0.00     0.000 C 
BRANCH  14  15
HETATM   15  C   UNL     1      30.616   8.304 -13.932  1.00  0.00     0.000 C 
BRANCH  15  16
HETATM   16  C   UNL     1      31.877   9.090 -14.348  1.00  0.00     0.000 C 
BRANCH  16  17
HETATM   17  C   UNL     1      32.712   9.648 -13.178  1.00  0.00     0.000 C 
BRANCH  17  18
HETATM   18  C   UNL     1      34.108   9.014 -13.011  1.00  0.00     0.000 C 
BRANCH  18  19
HETATM   19  C   UNL     1      34.164   7.803 -12.060  1.00  0.00     0.000 C 
BRANCH  19  20
HETATM   20  C   UNL     1      34.980   8.022 -10.770  1.00  0.00     0.000 C 
BRANCH  20  21
HETATM   21  C   UNL     1      34.223   8.739  -9.633  1.00  0.00    -0.000 C 
BRANCH  21  22
HETATM   22  C   UNL     1      33.487   7.811  -8.649  1.00  0.00    -0.005 C 
HETATM   23  C   UNL     1      33.983   7.944  -7.210  1.00  0.00     0.005 C 
ENDBRANCH  21  22
ENDBRANCH  20  21
ENDBRANCH  19  20
ENDBRANCH  18  19
ENDBRANCH  17  18
ENDBRANCH  16  17
ENDBRANCH  15  16
ENDBRANCH  14  15
ENDBRANCH  13  14
ENDBRANCH  12  13
ENDBRANCH  11  12
ENDBRANCH  10  11
ENDBRANCH   9  10
ENDBRANCH   8   9
ENDBRANCH   7   8
ENDBRANCH   6   7
ENDBRANCH   5   6
ENDBRANCH   3   5
ENDBRANCH   1   3
TORSDOF 19
ENDMDL
MODEL 15
REMARK VINA RESULT:      -4.3     65.568     68.428
REMARK  19 active torsions:
REMARK  status: ('A' for Active; 'I' for Inactive)
REMARK    1  A    between atoms: O_1  and  C_22 
REMARK    2  A    between atoms: C_3  and  C_4 
REMARK    3  A    between atoms: C_3  and  C_5 
REMARK    4  A    between atoms: C_4  and  C_6 
REMARK    5  A    between atoms: C_5  and  C_7 
REMARK    6  A    between atoms: C_6  and  C_8 
REMARK    7  A    between atoms: C_7  and  C_9 
REMARK    8  A    between atoms: C_8  and  C_10 
REMARK    9  A    between atoms: C_9  and  C_11 
REMARK   10  A    between atoms: C_10  and  C_12 
REMARK   11  A    between atoms: C_11  and  C_13 
REMARK   12  A    between atoms: C_12  and  C_14 
REMARK   13  A    between atoms: C_13  and  C_15 
REMARK   14  A    between atoms: C_14  and  C_16 
REMARK   15  A    between atoms: C_15  and  C_17 
REMARK   16  A    between atoms: C_16  and  C_18 
REMARK   17  A    between atoms: C_17  and  C_19 
REMARK   18  A    between atoms: C_18  and  C_20 
REMARK   19  A    between atoms: C_20  and  C_22 
ROOT
HETATM    1  O   UNL     1     -20.942  11.323 -15.465  1.00  0.00    -0.776 OA
HETATM    2  H   UNL     1     -20.170  10.929 -15.896  1.00  0.00     0.167 HD
ENDROOT
BRANCH   1   3
HETATM    3  C   UNL     1     -20.844  12.460 -14.744  1.00  0.00     0.139 C 
HETATM    4  O   UNL     1     -21.845  13.127 -14.525  1.00  0.00    -0.650 OA
BRANCH   3   5
HETATM    5  C   UNL     1     -19.506  12.933 -14.241  1.00  0.00     0.110 C 
BRANCH   5   6
HETATM    6  C   UNL     1     -18.344  12.632 -15.205  1.00  0.00     0.010 C 
BRANCH   6   7
HETATM    7  C   UNL     1     -17.003  12.250 -14.545  1.00  0.00     0.001 C 
BRANCH   7   8
HETATM    8  C   UNL     1     -17.079  11.073 -13.551  1.00  0.00     0.000 C 
BRANCH   8   9
HETATM    9  C   UNL     1     -16.037  11.109 -12.415  1.00  0.00     0.000 C 
BRANCH   9  10
HETATM   10  C   UNL     1     -16.587  11.533 -11.039  1.00  0.00     0.000 C 
BRANCH  10  11
HETATM   11  C   UNL     1     -15.543  11.579  -9.905  1.00  0.00     0.000 C 
BRANCH  11  12
HETATM   12  C   UNL     1     -14.084  11.361 -10.352  1.00  0.00     0.000 C 
BRANCH  12  13
HETATM   13  C   UNL     1     -13.469  10.009  -9.937  1.00  0.00     0.000 C 
BRANCH  13  14
HETATM   14  C   UNL     1     -12.803   9.217 -11.079  1.00  0.00     0.000 C 
BRANCH  14  15
HETATM   15  C   UNL     1     -13.772   8.408 -11.965  1.00  0.00     0.000 C 
BRANCH  15  16
HETATM   16  C   UNL     1     -13.267   8.123 -13.394  1.00  0.00     0.000 C 
BRANCH  16  17
HETATM   17  C   UNL     1     -13.739   9.128 -14.464  1.00  0.00     0.000 C 
BRANCH  17  18
HETATM   18  C   UNL     1     -12.851   9.208 -15.722  1.00  0.00     0.000 C 
BRANCH  18  19
HETATM   19  C   UNL     1     -13.567   9.696 -16.997  1.00  0.00     0.000 C 
BRANCH  19  20
HETATM   20  C   UNL     1     -14.625  10.794 -16.772  1.00  0.00     0.000 C 
BRANCH  20  21
HETATM   21  C   UNL     1     -15.577  11.036 -17.962  1.00  0.00    -0.000 C 
BRANCH  21  22
HETATM   22  C   UNL     1     -15.035  10.598 -19.334  1.00  0.00    -0.005 C 
HETATM   23  C   UNL     1     -14.726  11.771 -20.263  1.00  0.00     0.005 C 
ENDBRANCH  21  22
ENDBRANCH  20  21
ENDBRANCH  19  20
ENDBRANCH  18  19
ENDBRANCH  17  18
ENDBRANCH  16  17
ENDBRANCH  15  16
ENDBRANCH  14  15
ENDBRANCH  13  14
ENDBRANCH  12  13
ENDBRANCH  11  12
ENDBRANCH  10  11
ENDBRANCH   9  10
ENDBRANCH   8   9
ENDBRANCH   7   8
ENDBRANCH   6   7
ENDBRANCH   5   6
ENDBRANCH   3   5
ENDBRANCH   1   3
TORSDOF 19
ENDMDL
MODEL 16
REMARK VINA RESULT:      -4.3     25.040     28.350
REMARK  19 active torsions:
REMARK  status: ('A' for Active; 'I' for Inactive)
REMARK    1  A    between atoms: O_1  and  C_22 
REMARK    2  A    between atoms: C_3  and  C_4 
REMARK    3  A    between atoms: C_3  and  C_5 
REMARK    4  A    between atoms: C_4  and  C_6 
REMARK    5  A    between atoms: C_5  and  C_7 
REMARK    6  A    between atoms: C_6  and  C_8 
REMARK    7  A    between atoms: C_7  and  C_9 
REMARK    8  A    between atoms: C_8  and  C_10 
REMARK    9  A    between atoms: C_9  and  C_11 
REMARK   10  A    between atoms: C_10  and  C_12 
REMARK   11  A    between atoms: C_11  and  C_13 
REMARK   12  A    between atoms: C_12  and  C_14 
REMARK   13  A    between atoms: C_13  and  C_15 
REMARK   14  A    between atoms: C_14  and  C_16 
REMARK   15  A    between atoms: C_15  and  C_17 
REMARK   16  A    between atoms: C_16  and  C_18 
REMARK   17  A    between atoms: C_17  and  C_19 
REMARK   18  A    between atoms: C_18  and  C_20 
REMARK   19  A    between atoms: C_20  and  C_22 
ROOT
HETATM    1  O   UNL     1      34.721  11.435 -10.432  1.00  0.00    -0.776 OA
HETATM    2  H   UNL     1      34.508  11.549  -9.495  1.00  0.00     0.167 HD
ENDROOT
BRANCH   1   3
HETATM    3  C   UNL     1      33.830  11.737 -11.400  1.00  0.00     0.139 C 
HETATM    4  O   UNL     1      33.145  12.745 -11.300  1.00  0.00    -0.650 OA
BRANCH   3   5
HETATM    5  C   UNL     1      33.645  10.822 -12.581  1.00  0.00     0.110 C 
BRANCH   5   6
HETATM    6  C   UNL     1      34.091   9.372 -12.313  1.00  0.00     0.010 C 
BRANCH   6   7
HETATM    7  C   UNL     1      32.961   8.325 -12.227  1.00  0.00     0.001 C 
BRANCH   7   8
HETATM    8  C   UNL     1      32.245   8.030 -13.561  1.00  0.00     0.000 C 
BRANCH   8   9
HETATM    9  C   UNL     1      30.776   8.496 -13.629  1.00  0.00     0.000 C 
BRANCH   9  10
HETATM   10  C   UNL     1      30.535   9.776 -14.452  1.00  0.00     0.000 C 
BRANCH  10  11
HETATM   11  C   UNL     1      29.078  10.279 -14.467  1.00  0.00     0.000 C 
BRANCH  11  12
HETATM   12  C   UNL     1      28.848  11.636 -13.773  1.00  0.00     0.000 C 
BRANCH  12  13
HETATM   13  C   UNL     1      29.889  12.004 -12.697  1.00  0.00     0.000 C 
BRANCH  13  14
HETATM   14  C   UNL     1      29.316  12.691 -11.442  1.00  0.00     0.000 C 
BRANCH  14  15
HETATM   15  C   UNL     1      29.689  12.020 -10.104  1.00  0.00     0.000 C 
BRANCH  15  16
HETATM   16  C   UNL     1      28.934  10.710  -9.798  1.00  0.00     0.000 C 
BRANCH  16  17
HETATM   17  C   UNL     1      29.672   9.421 -10.210  1.00  0.00     0.000 C 
BRANCH  17  18
HETATM   18  C   UNL     1      30.958   9.121  -9.414  1.00  0.00     0.000 C 
BRANCH  18  19
HETATM   19  C   UNL     1      30.871   7.907  -8.468  1.00  0.00     0.000 C 
BRANCH  19  20
HETATM   20  C   UNL     1      31.823   6.743  -8.808  1.00  0.00     0.000 C 
BRANCH  20  21
HETATM   21  C   UNL     1      31.140   5.493  -9.399  1.00  0.00    -0.000 C 
BRANCH  21  22
HETATM   22  C   UNL     1      30.980   5.495 -10.930  1.00  0.00    -0.005 C 
HETATM   23  C   UNL     1      32.103   4.755 -11.655  1.00  0.00     0.005 C 
ENDBRANCH  21  22
ENDBRANCH  20  21
ENDBRANCH  19  20
ENDBRANCH  18  19
ENDBRANCH  17  18
ENDBRANCH  16  17
ENDBRANCH  15  16
ENDBRANCH  14  15
ENDBRANCH  13  14
ENDBRANCH  12  13
ENDBRANCH  11  12
ENDBRANCH  10  11
ENDBRANCH   9  10
ENDBRANCH   8   9
ENDBRANCH   7   8
ENDBRANCH   6   7
ENDBRANCH   5   6
ENDBRANCH   3   5
ENDBRANCH   1   3
TORSDOF 19
ENDMDL
MODEL 17
REMARK VINA RESULT:      -4.2     22.034     26.746
REMARK  19 active torsions:
REMARK  status: ('A' for Active; 'I' for Inactive)
REMARK    1  A    between atoms: O_1  and  C_22 
REMARK    2  A    between atoms: C_3  and  C_4 
REMARK    3  A    between atoms: C_3  and  C_5 
REMARK    4  A    between atoms: C_4  and  C_6 
REMARK    5  A    between atoms: C_5  and  C_7 
REMARK    6  A    between atoms: C_6  and  C_8 
REMARK    7  A    between atoms: C_7  and  C_9 
REMARK    8  A    between atoms: C_8  and  C_10 
REMARK    9  A    between atoms: C_9  and  C_11 
REMARK   10  A    between atoms: C_10  and  C_12 
REMARK   11  A    between atoms: C_11  and  C_13 
REMARK   12  A    between atoms: C_12  and  C_14 
REMARK   13  A    between atoms: C_13  and  C_15 
REMARK   14  A    between atoms: C_14  and  C_16 
REMARK   15  A    between atoms: C_15  and  C_17 
REMARK   16  A    between atoms: C_16  and  C_18 
REMARK   17  A    between atoms: C_17  and  C_19 
REMARK   18  A    between atoms: C_18  and  C_20 
REMARK   19  A    between atoms: C_20  and  C_22 
ROOT
HETATM    1  O   UNL     1      32.055   6.876 -22.279  1.00  0.00    -0.776 OA
HETATM    2  H   UNL     1      31.130   7.007 -22.531  1.00  0.00     0.167 HD
ENDROOT
BRANCH   1   3
HETATM    3  C   UNL     1      32.611   5.646 -22.253  1.00  0.00     0.139 C 
HETATM    4  O   UNL     1      32.731   5.013 -23.292  1.00  0.00    -0.650 OA
BRANCH   3   5
HETATM    5  C   UNL     1      33.047   5.033 -20.949  1.00  0.00     0.110 C 
BRANCH   5   6
HETATM    6  C   UNL     1      33.126   6.042 -19.788  1.00  0.00     0.010 C 
BRANCH   6   7
HETATM    7  C   UNL     1      32.717   5.506 -18.401  1.00  0.00     0.001 C 
BRANCH   7   8
HETATM    8  C   UNL     1      31.564   6.272 -17.721  1.00  0.00     0.000 C 
BRANCH   8   9
HETATM    9  C   UNL     1      30.490   5.383 -17.061  1.00  0.00     0.000 C 
BRANCH   9  10
HETATM   10  C   UNL     1      30.527   5.350 -15.521  1.00  0.00     0.000 C 
BRANCH  10  11
HETATM   11  C   UNL     1      31.179   6.580 -14.857  1.00  0.00     0.000 C 
BRANCH  11  12
HETATM   12  C   UNL     1      32.577   6.333 -14.256  1.00  0.00     0.000 C 
BRANCH  12  13
HETATM   13  C   UNL     1      32.618   5.320 -13.094  1.00  0.00     0.000 C 
BRANCH  13  14
HETATM   14  C   UNL     1      31.469   5.449 -12.075  1.00  0.00     0.000 C 
BRANCH  14  15
HETATM   15  C   UNL     1      31.856   5.146 -10.613  1.00  0.00     0.000 C 
BRANCH  15  16
HETATM   16  C   UNL     1      30.735   5.376  -9.579  1.00  0.00     0.000 C 
BRANCH  16  17
HETATM   17  C   UNL     1      31.206   5.441  -8.112  1.00  0.00     0.000 C 
BRANCH  17  18
HETATM   18  C   UNL     1      32.723   5.261  -7.904  1.00  0.00     0.000 C 
BRANCH  18  19
HETATM   19  C   UNL     1      33.226   5.561  -6.478  1.00  0.00     0.000 C 
BRANCH  19  20
HETATM   20  C   UNL     1      32.849   6.953  -5.932  1.00  0.00     0.000 C 
BRANCH  20  21
HETATM   21  C   UNL     1      31.396   7.086  -5.430  1.00  0.00    -0.000 C 
BRANCH  21  22
HETATM   22  C   UNL     1      30.621   8.296  -5.981  1.00  0.00    -0.005 C 
HETATM   23  C   UNL     1      29.997   9.161  -4.887  1.00  0.00     0.005 C 
ENDBRANCH  21  22
ENDBRANCH  20  21
ENDBRANCH  19  20
ENDBRANCH  18  19
ENDBRANCH  17  18
ENDBRANCH  16  17
ENDBRANCH  15  16
ENDBRANCH  14  15
ENDBRANCH  13  14
ENDBRANCH  12  13
ENDBRANCH  11  12
ENDBRANCH  10  11
ENDBRANCH   9  10
ENDBRANCH   8   9
ENDBRANCH   7   8
ENDBRANCH   6   7
ENDBRANCH   5   6
ENDBRANCH   3   5
ENDBRANCH   1   3
TORSDOF 19
ENDMDL
MODEL 18
REMARK VINA RESULT:      -4.2     66.681     68.887
REMARK  19 active torsions:
REMARK  status: ('A' for Active; 'I' for Inactive)
REMARK    1  A    between atoms: O_1  and  C_22 
REMARK    2  A    between atoms: C_3  and  C_4 
REMARK    3  A    between atoms: C_3  and  C_5 
REMARK    4  A    between atoms: C_4  and  C_6 
REMARK    5  A    between atoms: C_5  and  C_7 
REMARK    6  A    between atoms: C_6  and  C_8 
REMARK    7  A    between atoms: C_7  and  C_9 
REMARK    8  A    between atoms: C_8  and  C_10 
REMARK    9  A    between atoms: C_9  and  C_11 
REMARK   10  A    between atoms: C_10  and  C_12 
REMARK   11  A    between atoms: C_11  and  C_13 
REMARK   12  A    between atoms: C_12  and  C_14 
REMARK   13  A    between atoms: C_13  and  C_15 
REMARK   14  A    between atoms: C_14  and  C_16 
REMARK   15  A    between atoms: C_15  and  C_17 
REMARK   16  A    between atoms: C_16  and  C_18 
REMARK   17  A    between atoms: C_17  and  C_19 
REMARK   18  A    between atoms: C_18  and  C_20 
REMARK   19  A    between atoms: C_20  and  C_22 
ROOT
HETATM    1  O   UNL     1     -18.030  10.131 -18.754  1.00  0.00    -0.776 OA
HETATM    2  H   UNL     1     -18.514   9.538 -19.345  1.00  0.00     0.167 HD
ENDROOT
BRANCH   1   3
HETATM    3  C   UNL     1     -17.308  11.168 -19.229  1.00  0.00     0.139 C 
HETATM    4  O   UNL     1     -17.815  12.278 -19.299  1.00  0.00    -0.650 OA
BRANCH   3   5
HETATM    5  C   UNL     1     -15.897  10.958 -19.711  1.00  0.00     0.110 C 
BRANCH   5   6
HETATM    6  C   UNL     1     -14.899  10.650 -18.580  1.00  0.00     0.010 C 
BRANCH   6   7
HETATM    7  C   UNL     1     -15.254  11.224 -17.193  1.00  0.00     0.001 C 
BRANCH   7   8
HETATM    8  C   UNL     1     -14.525  10.559 -16.008  1.00  0.00     0.000 C 
BRANCH   8   9
HETATM    9  C   UNL     1     -14.575  11.349 -14.684  1.00  0.00     0.000 C 
BRANCH   9  10
HETATM   10  C   UNL     1     -15.912  11.260 -13.922  1.00  0.00     0.000 C 
BRANCH  10  11
HETATM   11  C   UNL     1     -17.024  12.190 -14.445  1.00  0.00     0.000 C 
BRANCH  11  12
HETATM   12  C   UNL     1     -18.394  12.022 -13.757  1.00  0.00     0.000 C 
BRANCH  12  13
HETATM   13  C   UNL     1     -18.353  11.316 -12.387  1.00  0.00     0.000 C 
BRANCH  13  14
HETATM   14  C   UNL     1     -19.072  12.063 -11.246  1.00  0.00     0.000 C 
BRANCH  14  15
HETATM   15  C   UNL     1     -18.142  12.771 -10.241  1.00  0.00     0.000 C 
BRANCH  15  16
HETATM   16  C   UNL     1     -17.679  11.900  -9.055  1.00  0.00     0.000 C 
BRANCH  16  17
HETATM   17  C   UNL     1     -16.362  11.130  -9.286  1.00  0.00     0.000 C 
BRANCH  17  18
HETATM   18  C   UNL     1     -15.378  11.800 -10.266  1.00  0.00     0.000 C 
BRANCH  18  19
HETATM   19  C   UNL     1     -14.150  10.948 -10.640  1.00  0.00     0.000 C 
BRANCH  19  20
HETATM   20  C   UNL     1     -12.944  11.086  -9.690  1.00  0.00     0.000 C 
BRANCH  20  21
HETATM   21  C   UNL     1     -13.006  10.207  -8.424  1.00  0.00    -0.000 C 
BRANCH  21  22
HETATM   22  C   UNL     1     -13.448   8.751  -8.658  1.00  0.00    -0.005 C 
HETATM   23  C   UNL     1     -13.428   7.903  -7.388  1.00  0.00     0.005 C 
ENDBRANCH  21  22
ENDBRANCH  20  21
ENDBRANCH  19  20
ENDBRANCH  18  19
ENDBRANCH  17  18
ENDBRANCH  16  17
ENDBRANCH  15  16
ENDBRANCH  14  15
ENDBRANCH  13  14
ENDBRANCH  12  13
ENDBRANCH  11  12
ENDBRANCH  10  11
ENDBRANCH   9  10
ENDBRANCH   8   9
ENDBRANCH   7   8
ENDBRANCH   6   7
ENDBRANCH   5   6
ENDBRANCH   3   5
ENDBRANCH   1   3
TORSDOF 19
ENDMDL
MODEL 19
REMARK VINA RESULT:      -4.2     23.098     26.538
REMARK  19 active torsions:
REMARK  status: ('A' for Active; 'I' for Inactive)
REMARK    1  A    between atoms: O_1  and  C_22 
REMARK    2  A    between atoms: C_3  and  C_4 
REMARK    3  A    between atoms: C_3  and  C_5 
REMARK    4  A    between atoms: C_4  and  C_6 
REMARK    5  A    between atoms: C_5  and  C_7 
REMARK    6  A    between atoms: C_6  and  C_8 
REMARK    7  A    between atoms: C_7  and  C_9 
REMARK    8  A    between atoms: C_8  and  C_10 
REMARK    9  A    between atoms: C_9  and  C_11 
REMARK   10  A    between atoms: C_10  and  C_12 
REMARK   11  A    between atoms: C_11  and  C_13 
REMARK   12  A    between atoms: C_12  and  C_14 
REMARK   13  A    between atoms: C_13  and  C_15 
REMARK   14  A    between atoms: C_14  and  C_16 
REMARK   15  A    between atoms: C_15  and  C_17 
REMARK   16  A    between atoms: C_16  and  C_18 
REMARK   17  A    between atoms: C_17  and  C_19 
REMARK   18  A    between atoms: C_18  and  C_20 
REMARK   19  A    between atoms: C_20  and  C_22 
ROOT
HETATM    1  O   UNL     1      31.503   9.258 -14.731  1.00  0.00    -0.776 OA
HETATM    2  H   UNL     1      32.295   9.636 -14.323  1.00  0.00     0.167 HD
ENDROOT
BRANCH   1   3
HETATM    3  C   UNL     1      31.229   9.436 -16.040  1.00  0.00     0.139 C 
HETATM    4  O   UNL     1      30.377   8.746 -16.581  1.00  0.00    -0.650 OA
BRANCH   3   5
HETATM    5  C   UNL     1      31.993  10.451 -16.849  1.00  0.00     0.110 C 
BRANCH   5   6
HETATM    6  C   UNL     1      33.452  10.047 -17.126  1.00  0.00     0.010 C 
BRANCH   6   7
HETATM    7  C   UNL     1      33.735   8.531 -17.170  1.00  0.00     0.001 C 
BRANCH   7   8
HETATM    8  C   UNL     1      33.351   7.836 -18.492  1.00  0.00     0.000 C 
BRANCH   8   9
HETATM    9  C   UNL     1      33.022   6.334 -18.367  1.00  0.00     0.000 C 
BRANCH   9  10
HETATM   10  C   UNL     1      33.312   5.715 -16.986  1.00  0.00     0.000 C 
BRANCH  10  11
HETATM   11  C   UNL     1      32.256   4.707 -16.488  1.00  0.00     0.000 C 
BRANCH  11  12
HETATM   12  C   UNL     1      30.928   5.332 -16.016  1.00  0.00     0.000 C 
BRANCH  12  13
HETATM   13  C   UNL     1      30.937   5.869 -14.571  1.00  0.00     0.000 C 
BRANCH  13  14
HETATM   14  C   UNL     1      32.022   5.265 -13.657  1.00  0.00     0.000 C 
BRANCH  14  15
HETATM   15  C   UNL     1      32.878   6.294 -12.892  1.00  0.00     0.000 C 
BRANCH  15  16
HETATM   16  C   UNL     1      32.865   6.143 -11.357  1.00  0.00     0.000 C 
BRANCH  16  17
HETATM   17  C   UNL     1      31.502   6.415 -10.687  1.00  0.00     0.000 C 
BRANCH  17  18
HETATM   18  C   UNL     1      31.007   5.303  -9.740  1.00  0.00     0.000 C 
BRANCH  18  19
HETATM   19  C   UNL     1      31.619   5.331  -8.326  1.00  0.00     0.000 C 
BRANCH  19  20
HETATM   20  C   UNL     1      30.598   5.308  -7.172  1.00  0.00     0.000 C 
BRANCH  20  21
HETATM   21  C   UNL     1      30.556   6.588  -6.311  1.00  0.00    -0.000 C 
BRANCH  21  22
HETATM   22  C   UNL     1      30.937   7.885  -7.047  1.00  0.00    -0.005 C 
HETATM   23  C   UNL     1      31.729   8.861  -6.178  1.00  0.00     0.005 C 
ENDBRANCH  21  22
ENDBRANCH  20  21
ENDBRANCH  19  20
ENDBRANCH  18  19
ENDBRANCH  17  18
ENDBRANCH  16  17
ENDBRANCH  15  16
ENDBRANCH  14  15
ENDBRANCH  13  14
ENDBRANCH  12  13
ENDBRANCH  11  12
ENDBRANCH  10  11
ENDBRANCH   9  10
ENDBRANCH   8   9
ENDBRANCH   7   8
ENDBRANCH   6   7
ENDBRANCH   5   6
ENDBRANCH   3   5
ENDBRANCH   1   3
TORSDOF 19
ENDMDL
MODEL 20
REMARK VINA RESULT:      -4.2     67.897     71.358
REMARK  19 active torsions:
REMARK  status: ('A' for Active; 'I' for Inactive)
REMARK    1  A    between atoms: O_1  and  C_22 
REMARK    2  A    between atoms: C_3  and  C_4 
REMARK    3  A    between atoms: C_3  and  C_5 
REMARK    4  A    between atoms: C_4  and  C_6 
REMARK    5  A    between atoms: C_5  and  C_7 
REMARK    6  A    between atoms: C_6  and  C_8 
REMARK    7  A    between atoms: C_7  and  C_9 
REMARK    8  A    between atoms: C_8  and  C_10 
REMARK    9  A    between atoms: C_9  and  C_11 
REMARK   10  A    between atoms: C_10  and  C_12 
REMARK   11  A    between atoms: C_11  and  C_13 
REMARK   12  A    between atoms: C_12  and  C_14 
REMARK   13  A    between atoms: C_13  and  C_15 
REMARK   14  A    between atoms: C_14  and  C_16 
REMARK   15  A    between atoms: C_15  and  C_17 
REMARK   16  A    between atoms: C_16  and  C_18 
REMARK   17  A    between atoms: C_17  and  C_19 
REMARK   18  A    between atoms: C_18  and  C_20 
REMARK   19  A    between atoms: C_20  and  C_22 
ROOT
HETATM    1  O   UNL     1     -23.145  13.379 -17.611  1.00  0.00    -0.776 OA
HETATM    2  H   UNL     1     -23.618  13.189 -16.788  1.00  0.00     0.167 HD
ENDROOT
BRANCH   1   3
HETATM    3  C   UNL     1     -22.279  12.495 -18.148  1.00  0.00     0.139 C 
HETATM    4  O   UNL     1     -22.686  11.641 -18.923  1.00  0.00    -0.650 OA
BRANCH   3   5
HETATM    5  C   UNL     1     -20.822  12.526 -17.768  1.00  0.00     0.110 C 
BRANCH   5   6
HETATM    6  C   UNL     1     -19.921  13.177 -18.833  1.00  0.00     0.010 C 
BRANCH   6   7
HETATM    7  C   UNL     1     -18.815  12.277 -19.421  1.00  0.00     0.001 C 
BRANCH   7   8
HETATM    8  C   UNL     1     -17.615  12.025 -18.485  1.00  0.00     0.000 C 
BRANCH   8   9
HETATM    9  C   UNL     1     -16.837  10.721 -18.758  1.00  0.00     0.000 C 
BRANCH   9  10
HETATM   10  C   UNL     1     -16.302  10.006 -17.503  1.00  0.00     0.000 C 
BRANCH  10  11
HETATM   11  C   UNL     1     -14.818  10.274 -17.182  1.00  0.00     0.000 C 
BRANCH  11  12
HETATM   12  C   UNL     1     -14.564  11.401 -16.161  1.00  0.00     0.000 C 
BRANCH  12  13
HETATM   13  C   UNL     1     -14.499  10.947 -14.689  1.00  0.00     0.000 C 
BRANCH  13  14
HETATM   14  C   UNL     1     -15.805  11.135 -13.891  1.00  0.00     0.000 C 
BRANCH  14  15
HETATM   15  C   UNL     1     -16.833  12.086 -14.536  1.00  0.00     0.000 C 
BRANCH  15  16
HETATM   16  C   UNL     1     -18.296  11.601 -14.478  1.00  0.00     0.000 C 
BRANCH  16  17
HETATM   17  C   UNL     1     -19.293  12.610 -13.872  1.00  0.00     0.000 C 
BRANCH  17  18
HETATM   18  C   UNL     1     -20.073  12.100 -12.644  1.00  0.00     0.000 C 
BRANCH  18  19
HETATM   19  C   UNL     1     -20.558  13.199 -11.677  1.00  0.00     0.000 C 
BRANCH  19  20
HETATM   20  C   UNL     1     -19.516  13.663 -10.640  1.00  0.00     0.000 C 
BRANCH  20  21
HETATM   21  C   UNL     1     -19.525  12.880  -9.311  1.00  0.00    -0.000 C 
BRANCH  21  22
HETATM   22  C   UNL     1     -18.278  12.015  -9.052  1.00  0.00    -0.005 C 
HETATM   23  C   UNL     1     -17.155  12.259 -10.058  1.00  0.00     0.005 C 
ENDBRANCH  21  22
ENDBRANCH  20  21
ENDBRANCH  19  20
ENDBRANCH  18  19
ENDBRANCH  17  18
ENDBRANCH  16  17
ENDBRANCH  15  16
ENDBRANCH  14  15
ENDBRANCH  13  14
ENDBRANCH  12  13
ENDBRANCH  11  12
ENDBRANCH  10  11
ENDBRANCH   9  10
ENDBRANCH   8   9
ENDBRANCH   7   8
ENDBRANCH   6   7
ENDBRANCH   5   6
ENDBRANCH   3   5
ENDBRANCH   1   3
TORSDOF 19
ENDMDL
