MODEL 1
REMARK VINA RESULT:      -4.4      0.000      0.000
REMARK  15 active torsions:
REMARK  status: ('A' for Active; 'I' for Inactive)
REMARK    1  A    between atoms: O_1  and  C_22 
REMARK    2  A    between atoms: C_3  and  C_4 
REMARK    3  A    between atoms: C_3  and  C_5 
REMARK    4  A    between atoms: C_4  and  C_6 
REMARK    5  A    between atoms: C_5  and  C_7 
REMARK    6  A    between atoms: C_9  and  C_10 
REMARK    7  A    between atoms: C_9  and  C_13 
REMARK    8  A    between atoms: C_10  and  C_14 
REMARK    9  A    between atoms: C_11  and  C_12 
REMARK   10  A    between atoms: C_12  and  C_16 
REMARK   11  A    between atoms: C_13  and  C_22 
REMARK   12  A    between atoms: C_15  and  C_17 
REMARK   13  A    between atoms: C_15  and  C_20 
REMARK   14  A    between atoms: C_18  and  C_19 
REMARK   15  A    between atoms: C_18  and  C_21 
ROOT
HETATM    1  O   UNL     1      28.907  12.112  -6.967  1.00  0.00    -0.776 OA
HETATM    2  H   UNL     1      28.238  11.682  -7.517  1.00  0.00     0.167 HD
ENDROOT
BRANCH   1   3
HETATM    3  C   UNL     1      30.194  11.705  -6.979  1.00  0.00     0.139 C 
HETATM    4  O   UNL     1      30.780  11.495  -5.927  1.00  0.00    -0.650 OA
BRANCH   3   5
HETATM    5  C   UNL     1      30.908  11.522  -8.290  1.00  0.00     0.110 C 
BRANCH   5   6
HETATM    6  C   UNL     1      31.542  10.130  -8.421  1.00  0.00     0.014 C 
BRANCH   6   7
HETATM    7  C   UNL     1      30.500   9.004  -8.423  1.00  0.00     0.027 C 
BRANCH   7   8
HETATM    8  C   UNL     1      31.006   7.842  -7.606  1.00  0.00    -0.030 C 
HETATM    9  C   UNL     1      31.273   6.612  -8.086  1.00  0.00    -0.027 C 
BRANCH   9  10
HETATM   10  C   UNL     1      31.137   6.188  -9.527  1.00  0.00     0.053 C 
BRANCH  10  11
HETATM   11  C   UNL     1      32.380   5.473 -10.008  1.00  0.00    -0.027 C 
HETATM   12  C   UNL     1      33.592   6.011 -10.254  1.00  0.00    -0.027 C 
BRANCH  12  13
HETATM   13  C   UNL     1      33.996   7.454 -10.086  1.00  0.00     0.053 C 
BRANCH  13  14
HETATM   14  C   UNL     1      34.484   8.011 -11.402  1.00  0.00    -0.027 C 
HETATM   15  C   UNL     1      33.700   8.578 -12.341  1.00  0.00    -0.027 C 
BRANCH  15  16
HETATM   16  C   UNL     1      32.205   8.728 -12.228  1.00  0.00     0.053 C 
BRANCH  16  17
HETATM   17  C   UNL     1      31.531   8.579 -13.569  1.00  0.00    -0.027 C 
HETATM   18  C   UNL     1      31.009   7.425 -14.022  1.00  0.00    -0.030 C 
BRANCH  18  19
HETATM   19  C   UNL     1      31.030   6.118 -13.270  1.00  0.00     0.027 C 
BRANCH  19  20
HETATM   20  C   UNL     1      32.174   5.242 -13.791  1.00  0.00     0.004 C 
BRANCH  20  21
HETATM   21  C   UNL     1      32.382   5.440 -15.297  1.00  0.00    -0.000 C 
BRANCH  21  22
HETATM   22  C   UNL     1      33.872   5.591 -15.627  1.00  0.00    -0.005 C 
HETATM   23  C   UNL     1      34.268   7.061 -15.729  1.00  0.00     0.005 C 
ENDBRANCH  21  22
ENDBRANCH  20  21
ENDBRANCH  19  20
ENDBRANCH  18  19
ENDBRANCH  16  17
ENDBRANCH  15  16
ENDBRANCH  13  14
ENDBRANCH  12  13
ENDBRANCH  10  11
ENDBRANCH   9  10
ENDBRANCH   7   8
ENDBRANCH   6   7
ENDBRANCH   5   6
ENDBRANCH   3   5
ENDBRANCH   1   3
TORSDOF 15
ENDMDL
MODEL 2
REMARK VINA RESULT:      -4.3      3.867      6.960
REMARK  15 active torsions:
REMARK  status: ('A' for Active; 'I' for Inactive)
REMARK    1  A    between atoms: O_1  and  C_22 
REMARK    2  A    between atoms: C_3  and  C_4 
REMARK    3  A    between atoms: C_3  and  C_5 
REMARK    4  A    between atoms: C_4  and  C_6 
REMARK    5  A    between atoms: C_5  and  C_7 
REMARK    6  A    between atoms: C_9  and  C_10 
REMARK    7  A    between atoms: C_9  and  C_13 
REMARK    8  A    between atoms: C_10  and  C_14 
REMARK    9  A    between atoms: C_11  and  C_12 
REMARK   10  A    between atoms: C_12  and  C_16 
REMARK   11  A    between atoms: C_13  and  C_22 
REMARK   12  A    between atoms: C_15  and  C_17 
REMARK   13  A    between atoms: C_15  and  C_20 
REMARK   14  A    between atoms: C_18  and  C_19 
REMARK   15  A    between atoms: C_18  and  C_21 
ROOT
HETATM    1  O   UNL     1      28.698  12.211 -17.458  1.00  0.00    -0.776 OA
HETATM    2  H   UNL     1      28.997  12.554 -18.312  1.00  0.00     0.167 HD
ENDROOT
BRANCH   1   3
HETATM    3  C   UNL     1      29.425  12.391 -16.335  1.00  0.00     0.139 C 
HETATM    4  O   UNL     1      30.494  12.982 -16.385  1.00  0.00    -0.650 OA
BRANCH   3   5
HETATM    5  C   UNL     1      28.921  11.852 -15.024  1.00  0.00     0.110 C 
BRANCH   5   6
HETATM    6  C   UNL     1      30.024  11.779 -13.960  1.00  0.00     0.014 C 
BRANCH   6   7
HETATM    7  C   UNL     1      30.873  10.505 -14.074  1.00  0.00     0.027 C 
BRANCH   7   8
HETATM    8  C   UNL     1      29.990   9.338 -14.440  1.00  0.00    -0.030 C 
HETATM    9  C   UNL     1      30.252   8.440 -15.408  1.00  0.00    -0.027 C 
BRANCH   9  10
HETATM   10  C   UNL     1      31.482   8.428 -16.280  1.00  0.00     0.053 C 
BRANCH  10  11
HETATM   11  C   UNL     1      31.142   8.039 -17.702  1.00  0.00    -0.027 C 
HETATM   12  C   UNL     1      30.975   6.794 -18.194  1.00  0.00    -0.027 C 
BRANCH  12  13
HETATM   13  C   UNL     1      31.069   5.497 -17.432  1.00  0.00     0.053 C 
BRANCH  13  14
HETATM   14  C   UNL     1      32.516   5.169 -17.147  1.00  0.00    -0.027 C 
HETATM   15  C   UNL     1      33.053   5.047 -15.916  1.00  0.00    -0.027 C 
BRANCH  15  16
HETATM   16  C   UNL     1      32.293   5.238 -14.629  1.00  0.00     0.053 C 
BRANCH  16  17
HETATM   17  C   UNL     1      32.965   6.249 -13.735  1.00  0.00    -0.027 C 
HETATM   18  C   UNL     1      32.361   6.847 -12.693  1.00  0.00    -0.030 C 
BRANCH  18  19
HETATM   19  C   UNL     1      30.932   6.609 -12.275  1.00  0.00     0.027 C 
BRANCH  19  20
HETATM   20  C   UNL     1      30.668   7.295 -10.930  1.00  0.00     0.004 C 
BRANCH  20  21
HETATM   21  C   UNL     1      31.786   6.997  -9.926  1.00  0.00    -0.000 C 
BRANCH  21  22
HETATM   22  C   UNL     1      31.206   6.579  -8.570  1.00  0.00    -0.005 C 
HETATM   23  C   UNL     1      31.793   5.250  -8.105  1.00  0.00     0.005 C 
ENDBRANCH  21  22
ENDBRANCH  20  21
ENDBRANCH  19  20
ENDBRANCH  18  19
ENDBRANCH  16  17
ENDBRANCH  15  16
ENDBRANCH  13  14
ENDBRANCH  12  13
ENDBRANCH  10  11
ENDBRANCH   9  10
ENDBRANCH   7   8
ENDBRANCH   6   7
ENDBRANCH   5   6
ENDBRANCH   3   5
ENDBRANCH   1   3
TORSDOF 15
ENDMDL
MODEL 3
REMARK VINA RESULT:      -4.2     49.067     50.779
REMARK  15 active torsions:
REMARK  status: ('A' for Active; 'I' for Inactive)
REMARK    1  A    between atoms: O_1  and  C_22 
REMARK    2  A    between atoms: C_3  and  C_4 
REMARK    3  A    between atoms: C_3  and  C_5 
REMARK    4  A    between atoms: C_4  and  C_6 
REMARK    5  A    between atoms: C_5  and  C_7 
REMARK    6  A    between atoms: C_9  and  C_10 
REMARK    7  A    between atoms: C_9  and  C_13 
REMARK    8  A    between atoms: C_10  and  C_14 
REMARK    9  A    between atoms: C_11  and  C_12 
REMARK   10  A    between atoms: C_12  and  C_16 
REMARK   11  A    between atoms: C_13  and  C_22 
REMARK   12  A    between atoms: C_15  and  C_17 
REMARK   13  A    between atoms: C_15  and  C_20 
REMARK   14  A    between atoms: C_18  and  C_19 
REMARK   15  A    between atoms: C_18  and  C_21 
ROOT
HETATM    1  O   UNL     1     -22.757  12.336 -18.163  1.00  0.00    -0.776 OA
HETATM    2  H   UNL     1     -23.078  11.423 -18.174  1.00  0.00     0.167 HD
ENDROOT
BRANCH   1   3
HETATM    3  C   UNL     1     -22.243  12.887 -17.043  1.00  0.00     0.139 C 
HETATM    4  O   UNL     1     -22.777  13.867 -16.542  1.00  0.00    -0.650 OA
BRANCH   3   5
HETATM    5  C   UNL     1     -21.007  12.300 -16.420  1.00  0.00     0.110 C 
BRANCH   5   6
HETATM    6  C   UNL     1     -19.975  13.374 -16.047  1.00  0.00     0.014 C 
BRANCH   6   7
HETATM    7  C   UNL     1     -19.388  13.168 -14.644  1.00  0.00     0.027 C 
BRANCH   7   8
HETATM    8  C   UNL     1     -20.433  13.483 -13.604  1.00  0.00    -0.030 C 
HETATM    9  C   UNL     1     -20.374  13.122 -12.309  1.00  0.00    -0.027 C 
BRANCH   9  10
HETATM   10  C   UNL     1     -19.242  12.361 -11.665  1.00  0.00     0.053 C 
BRANCH  10  11
HETATM   11  C   UNL     1     -18.965  12.869 -10.267  1.00  0.00    -0.027 C 
HETATM   12  C   UNL     1     -18.109  12.353  -9.362  1.00  0.00    -0.027 C 
BRANCH  12  13
HETATM   13  C   UNL     1     -17.210  11.157  -9.541  1.00  0.00     0.053 C 
BRANCH  13  14
HETATM   14  C   UNL     1     -15.791  11.610  -9.792  1.00  0.00    -0.027 C 
HETATM   15  C   UNL     1     -15.159  11.554 -10.982  1.00  0.00    -0.027 C 
BRANCH  15  16
HETATM   16  C   UNL     1     -15.771  11.014 -12.248  1.00  0.00     0.053 C 
BRANCH  16  17
HETATM   17  C   UNL     1     -14.740  10.861 -13.339  1.00  0.00    -0.027 C 
HETATM   18  C   UNL     1     -14.948  11.206 -14.621  1.00  0.00    -0.030 C 
BRANCH  18  19
HETATM   19  C   UNL     1     -16.235  11.779 -15.160  1.00  0.00     0.027 C 
BRANCH  19  20
HETATM   20  C   UNL     1     -17.048  10.672 -15.838  1.00  0.00     0.004 C 
BRANCH  20  21
HETATM   21  C   UNL     1     -16.715  10.574 -17.331  1.00  0.00    -0.000 C 
BRANCH  21  22
HETATM   22  C   UNL     1     -17.357  11.728 -18.111  1.00  0.00    -0.005 C 
HETATM   23  C   UNL     1     -16.799  11.812 -19.528  1.00  0.00     0.005 C 
ENDBRANCH  21  22
ENDBRANCH  20  21
ENDBRANCH  19  20
ENDBRANCH  18  19
ENDBRANCH  16  17
ENDBRANCH  15  16
ENDBRANCH  13  14
ENDBRANCH  12  13
ENDBRANCH  10  11
ENDBRANCH   9  10
ENDBRANCH   7   8
ENDBRANCH   6   7
ENDBRANCH   5   6
ENDBRANCH   3   5
ENDBRANCH   1   3
TORSDOF 15
ENDMDL
MODEL 4
REMARK VINA RESULT:      -4.2      6.145      8.872
REMARK  15 active torsions:
REMARK  status: ('A' for Active; 'I' for Inactive)
REMARK    1  A    between atoms: O_1  and  C_22 
REMARK    2  A    between atoms: C_3  and  C_4 
REMARK    3  A    between atoms: C_3  and  C_5 
REMARK    4  A    between atoms: C_4  and  C_6 
REMARK    5  A    between atoms: C_5  and  C_7 
REMARK    6  A    between atoms: C_9  and  C_10 
REMARK    7  A    between atoms: C_9  and  C_13 
REMARK    8  A    between atoms: C_10  and  C_14 
REMARK    9  A    between atoms: C_11  and  C_12 
REMARK   10  A    between atoms: C_12  and  C_16 
REMARK   11  A    between atoms: C_13  and  C_22 
REMARK   12  A    between atoms: C_15  and  C_17 
REMARK   13  A    between atoms: C_15  and  C_20 
REMARK   14  A    between atoms: C_18  and  C_19 
REMARK   15  A    between atoms: C_18  and  C_21 
ROOT
HETATM    1  O   UNL     1      35.402  11.177 -17.213  1.00  0.00    -0.776 OA
HETATM    2  H   UNL     1      35.215  12.111 -17.378  1.00  0.00     0.167 HD
ENDROOT
BRANCH   1   3
HETATM    3  C   UNL     1      35.165  10.236 -18.152  1.00  0.00     0.139 C 
HETATM    4  O   UNL     1      35.705  10.313 -19.246  1.00  0.00    -0.650 OA
BRANCH   3   5
HETATM    5  C   UNL     1      34.226   9.100 -17.853  1.00  0.00     0.110 C 
BRANCH   5   6
HETATM    6  C   UNL     1      34.505   8.457 -16.487  1.00  0.00     0.014 C 
BRANCH   6   7
HETATM    7  C   UNL     1      33.221   8.145 -15.707  1.00  0.00     0.027 C 
BRANCH   7   8
HETATM    8  C   UNL     1      33.489   7.050 -14.705  1.00  0.00    -0.030 C 
HETATM    9  C   UNL     1      33.439   5.730 -14.966  1.00  0.00    -0.027 C 
BRANCH   9  10
HETATM   10  C   UNL     1      33.132   5.115 -16.308  1.00  0.00     0.053 C 
BRANCH  10  11
HETATM   11  C   UNL     1      31.641   5.000 -16.530  1.00  0.00    -0.027 C 
HETATM   12  C   UNL     1      30.900   5.627 -17.466  1.00  0.00    -0.027 C 
BRANCH  12  13
HETATM   13  C   UNL     1      31.393   6.579 -18.527  1.00  0.00     0.053 C 
BRANCH  13  14
HETATM   14  C   UNL     1      30.734   7.927 -18.358  1.00  0.00    -0.027 C 
HETATM   15  C   UNL     1      30.512   8.809 -19.354  1.00  0.00    -0.027 C 
BRANCH  15  16
HETATM   16  C   UNL     1      30.904   8.590 -20.792  1.00  0.00     0.053 C 
BRANCH  16  17
HETATM   17  C   UNL     1      32.231   9.235 -21.108  1.00  0.00    -0.027 C 
HETATM   18  C   UNL     1      33.329   8.551 -21.473  1.00  0.00    -0.030 C 
BRANCH  18  19
HETATM   19  C   UNL     1      33.402   7.051 -21.610  1.00  0.00     0.027 C 
BRANCH  19  20
HETATM   20  C   UNL     1      33.037   6.646 -23.041  1.00  0.00     0.004 C 
BRANCH  20  21
HETATM   21  C   UNL     1      32.417   5.245 -23.081  1.00  0.00    -0.000 C 
BRANCH  21  22
HETATM   22  C   UNL     1      31.766   4.898 -21.737  1.00  0.00    -0.005 C 
HETATM   23  C   UNL     1      30.261   5.149 -21.773  1.00  0.00     0.005 C 
ENDBRANCH  21  22
ENDBRANCH  20  21
ENDBRANCH  19  20
ENDBRANCH  18  19
ENDBRANCH  16  17
ENDBRANCH  15  16
ENDBRANCH  13  14
ENDBRANCH  12  13
ENDBRANCH  10  11
ENDBRANCH   9  10
ENDBRANCH   7   8
ENDBRANCH   6   7
ENDBRANCH   5   6
ENDBRANCH   3   5
ENDBRANCH   1   3
TORSDOF 15
ENDMDL
MODEL 5
REMARK VINA RESULT:      -4.2      3.634      7.716
REMARK  15 active torsions:
REMARK  status: ('A' for Active; 'I' for Inactive)
REMARK    1  A    between atoms: O_1  and  C_22 
REMARK    2  A    between atoms: C_3  and  C_4 
REMARK    3  A    between atoms: C_3  and  C_5 
REMARK    4  A    between atoms: C_4  and  C_6 
REMARK    5  A    between atoms: C_5  and  C_7 
REMARK    6  A    between atoms: C_9  and  C_10 
REMARK    7  A    between atoms: C_9  and  C_13 
REMARK    8  A    between atoms: C_10  and  C_14 
REMARK    9  A    between atoms: C_11  and  C_12 
REMARK   10  A    between atoms: C_12  and  C_16 
REMARK   11  A    between atoms: C_13  and  C_22 
REMARK   12  A    between atoms: C_15  and  C_17 
REMARK   13  A    between atoms: C_15  and  C_20 
REMARK   14  A    between atoms: C_18  and  C_19 
REMARK   15  A    between atoms: C_18  and  C_21 
ROOT
HETATM    1  O   UNL     1      32.381   4.667 -13.197  1.00  0.00    -0.776 OA
HETATM    2  H   UNL     1      33.231   4.659 -13.660  1.00  0.00     0.167 HD
ENDROOT
BRANCH   1   3
HETATM    3  C   UNL     1      32.315   4.765 -11.852  1.00  0.00     0.139 C 
HETATM    4  O   UNL     1      33.319   4.597 -11.175  1.00  0.00    -0.650 OA
BRANCH   3   5
HETATM    5  C   UNL     1      31.001   5.071 -11.189  1.00  0.00     0.110 C 
BRANCH   5   6
HETATM    6  C   UNL     1      30.245   6.210 -11.887  1.00  0.00     0.014 C 
BRANCH   6   7
HETATM    7  C   UNL     1      30.936   7.570 -11.717  1.00  0.00     0.027 C 
BRANCH   7   8
HETATM    8  C   UNL     1      30.693   8.092 -10.324  1.00  0.00    -0.030 C 
HETATM    9  C   UNL     1      31.637   8.240  -9.375  1.00  0.00    -0.027 C 
BRANCH   9  10
HETATM   10  C   UNL     1      33.103   7.934  -9.545  1.00  0.00     0.053 C 
BRANCH  10  11
HETATM   11  C   UNL     1      33.665   7.246  -8.321  1.00  0.00    -0.027 C 
HETATM   12  C   UNL     1      33.117   6.226  -7.629  1.00  0.00    -0.027 C 
BRANCH  12  13
HETATM   13  C   UNL     1      31.819   5.519  -7.929  1.00  0.00     0.053 C 
BRANCH  13  14
HETATM   14  C   UNL     1      31.084   5.220  -6.644  1.00  0.00    -0.027 C 
HETATM   15  C   UNL     1      30.579   6.149  -5.808  1.00  0.00    -0.027 C 
BRANCH  15  16
HETATM   16  C   UNL     1      30.685   7.637  -6.020  1.00  0.00     0.053 C 
BRANCH  16  17
HETATM   17  C   UNL     1      31.590   8.277  -4.997  1.00  0.00    -0.027 C 
HETATM   18  C   UNL     1      32.282   9.410  -5.212  1.00  0.00    -0.030 C 
BRANCH  18  19
HETATM   19  C   UNL     1      32.266  10.196  -6.499  1.00  0.00     0.027 C 
BRANCH  19  20
HETATM   20  C   UNL     1      31.515  11.514  -6.288  1.00  0.00     0.004 C 
BRANCH  20  21
HETATM   21  C   UNL     1      30.030  11.368  -6.639  1.00  0.00    -0.000 C 
BRANCH  21  22
HETATM   22  C   UNL     1      29.146  11.829  -5.475  1.00  0.00    -0.005 C 
HETATM   23  C   UNL     1      28.713  10.649  -4.611  1.00  0.00     0.005 C 
ENDBRANCH  21  22
ENDBRANCH  20  21
ENDBRANCH  19  20
ENDBRANCH  18  19
ENDBRANCH  16  17
ENDBRANCH  15  16
ENDBRANCH  13  14
ENDBRANCH  12  13
ENDBRANCH  10  11
ENDBRANCH   9  10
ENDBRANCH   7   8
ENDBRANCH   6   7
ENDBRANCH   5   6
ENDBRANCH   3   5
ENDBRANCH   1   3
TORSDOF 15
ENDMDL
MODEL 6
REMARK VINA RESULT:      -4.2     47.601     49.312
REMARK  15 active torsions:
REMARK  status: ('A' for Active; 'I' for Inactive)
REMARK    1  A    between atoms: O_1  and  C_22 
REMARK    2  A    between atoms: C_3  and  C_4 
REMARK    3  A    between atoms: C_3  and  C_5 
REMARK    4  A    between atoms: C_4  and  C_6 
REMARK    5  A    between atoms: C_5  and  C_7 
REMARK    6  A    between atoms: C_9  and  C_10 
REMARK    7  A    between atoms: C_9  and  C_13 
REMARK    8  A    between atoms: C_10  and  C_14 
REMARK    9  A    between atoms: C_11  and  C_12 
REMARK   10  A    between atoms: C_12  and  C_16 
REMARK   11  A    between atoms: C_13  and  C_22 
REMARK   12  A    between atoms: C_15  and  C_17 
REMARK   13  A    between atoms: C_15  and  C_20 
REMARK   14  A    between atoms: C_18  and  C_19 
REMARK   15  A    between atoms: C_18  and  C_21 
ROOT
HETATM    1  O   UNL     1     -14.256   8.942 -18.816  1.00  0.00    -0.776 OA
HETATM    2  H   UNL     1     -13.967   8.054 -18.563  1.00  0.00     0.167 HD
ENDROOT
BRANCH   1   3
HETATM    3  C   UNL     1     -13.797  10.040 -18.177  1.00  0.00     0.139 C 
HETATM    4  O   UNL     1     -12.594  10.224 -18.064  1.00  0.00    -0.650 OA
BRANCH   3   5
HETATM    5  C   UNL     1     -14.770  11.027 -17.595  1.00  0.00     0.110 C 
BRANCH   5   6
HETATM    6  C   UNL     1     -16.127  11.003 -18.314  1.00  0.00     0.014 C 
BRANCH   6   7
HETATM    7  C   UNL     1     -16.144  11.877 -19.575  1.00  0.00     0.027 C 
BRANCH   7   8
HETATM    8  C   UNL     1     -17.246  11.419 -20.496  1.00  0.00    -0.030 C 
HETATM    9  C   UNL     1     -18.439  12.027 -20.642  1.00  0.00    -0.027 C 
BRANCH   9  10
HETATM   10  C   UNL     1     -18.872  13.284 -19.931  1.00  0.00     0.053 C 
BRANCH  10  11
HETATM   11  C   UNL     1     -20.186  13.080 -19.209  1.00  0.00    -0.027 C 
HETATM   12  C   UNL     1     -20.373  12.568 -17.975  1.00  0.00    -0.027 C 
BRANCH  12  13
HETATM   13  C   UNL     1     -19.308  12.097 -17.018  1.00  0.00     0.053 C 
BRANCH  13  14
HETATM   14  C   UNL     1     -19.430  12.835 -15.705  1.00  0.00    -0.027 C 
HETATM   15  C   UNL     1     -18.483  12.868 -14.746  1.00  0.00    -0.027 C 
BRANCH  15  16
HETATM   16  C   UNL     1     -17.158  12.155 -14.829  1.00  0.00     0.053 C 
BRANCH  16  17
HETATM   17  C   UNL     1     -16.839  11.431 -13.545  1.00  0.00    -0.027 C 
HETATM   18  C   UNL     1     -16.454  10.144 -13.486  1.00  0.00    -0.030 C 
BRANCH  18  19
HETATM   19  C   UNL     1     -16.296   9.238 -14.681  1.00  0.00     0.027 C 
BRANCH  19  20
HETATM   20  C   UNL     1     -15.220   8.187 -14.391  1.00  0.00     0.004 C 
BRANCH  20  21
HETATM   21  C   UNL     1     -14.038   8.798 -13.632  1.00  0.00    -0.000 C 
BRANCH  21  22
HETATM   22  C   UNL     1     -13.075   9.504 -14.594  1.00  0.00    -0.005 C 
HETATM   23  C   UNL     1     -12.712  10.897 -14.088  1.00  0.00     0.005 C 
ENDBRANCH  21  22
ENDBRANCH  20  21
ENDBRANCH  19  20
ENDBRANCH  18  19
ENDBRANCH  16  17
ENDBRANCH  15  16
ENDBRANCH  13  14
ENDBRANCH  12  13
ENDBRANCH  10  11
ENDBRANCH   9  10
ENDBRANCH   7   8
ENDBRANCH   6   7
ENDBRANCH   5   6
ENDBRANCH   3   5
ENDBRANCH   1   3
TORSDOF 15
ENDMDL
MODEL 7
REMARK VINA RESULT:      -4.1      5.998      9.360
REMARK  15 active torsions:
REMARK  status: ('A' for Active; 'I' for Inactive)
REMARK    1  A    between atoms: O_1  and  C_22 
REMARK    2  A    between atoms: C_3  and  C_4 
REMARK    3  A    between atoms: C_3  and  C_5 
REMARK    4  A    between atoms: C_4  and  C_6 
REMARK    5  A    between atoms: C_5  and  C_7 
REMARK    6  A    between atoms: C_9  and  C_10 
REMARK    7  A    between atoms: C_9  and  C_13 
REMARK    8  A    between atoms: C_10  and  C_14 
REMARK    9  A    between atoms: C_11  and  C_12 
REMARK   10  A    between atoms: C_12  and  C_16 
REMARK   11  A    between atoms: C_13  and  C_22 
REMARK   12  A    between atoms: C_15  and  C_17 
REMARK   13  A    between atoms: C_15  and  C_20 
REMARK   14  A    between atoms: C_18  and  C_19 
REMARK   15  A    between atoms: C_18  and  C_21 
ROOT
HETATM    1  O   UNL     1      33.872   4.822 -15.935  1.00  0.00    -0.776 OA
HETATM    2  H   UNL     1      33.559   4.207 -16.613  1.00  0.00     0.167 HD
ENDROOT
BRANCH   1   3
HETATM    3  C   UNL     1      33.011   5.462 -15.116  1.00  0.00     0.139 C 
HETATM    4  O   UNL     1      32.739   4.987 -14.022  1.00  0.00    -0.650 OA
BRANCH   3   5
HETATM    5  C   UNL     1      32.378   6.753 -15.557  1.00  0.00     0.110 C 
BRANCH   5   6
HETATM    6  C   UNL     1      31.013   6.535 -16.226  1.00  0.00     0.014 C 
BRANCH   6   7
HETATM    7  C   UNL     1      31.136   6.121 -17.698  1.00  0.00     0.027 C 
BRANCH   7   8
HETATM    8  C   UNL     1      30.874   7.313 -18.585  1.00  0.00    -0.030 C 
HETATM    9  C   UNL     1      30.707   7.266 -19.920  1.00  0.00    -0.027 C 
BRANCH   9  10
HETATM   10  C   UNL     1      30.727   6.014 -20.760  1.00  0.00     0.053 C 
BRANCH  10  11
HETATM   11  C   UNL     1      31.686   6.149 -21.922  1.00  0.00    -0.027 C 
HETATM   12  C   UNL     1      33.026   6.288 -21.869  1.00  0.00    -0.027 C 
BRANCH  12  13
HETATM   13  C   UNL     1      33.886   6.321 -20.631  1.00  0.00     0.053 C 
BRANCH  13  14
HETATM   14  C   UNL     1      34.985   7.345 -20.792  1.00  0.00    -0.027 C 
HETATM   15  C   UNL     1      34.942   8.606 -20.317  1.00  0.00    -0.027 C 
BRANCH  15  16
HETATM   16  C   UNL     1      33.779   9.196 -19.563  1.00  0.00     0.053 C 
BRANCH  16  17
HETATM   17  C   UNL     1      33.999   9.135 -18.072  1.00  0.00    -0.027 C 
HETATM   18  C   UNL     1      33.275   9.831 -17.178  1.00  0.00    -0.030 C 
BRANCH  18  19
HETATM   19  C   UNL     1      32.154  10.777 -17.529  1.00  0.00     0.027 C 
BRANCH  19  20
HETATM   20  C   UNL     1      31.017  10.628 -16.513  1.00  0.00     0.004 C 
BRANCH  20  21
HETATM   21  C   UNL     1      30.828  11.912 -15.700  1.00  0.00    -0.000 C 
BRANCH  21  22
HETATM   22  C   UNL     1      30.114  12.985 -16.531  1.00  0.00    -0.005 C 
HETATM   23  C   UNL     1      28.638  13.080 -16.158  1.00  0.00     0.005 C 
ENDBRANCH  21  22
ENDBRANCH  20  21
ENDBRANCH  19  20
ENDBRANCH  18  19
ENDBRANCH  16  17
ENDBRANCH  15  16
ENDBRANCH  13  14
ENDBRANCH  12  13
ENDBRANCH  10  11
ENDBRANCH   9  10
ENDBRANCH   7   8
ENDBRANCH   6   7
ENDBRANCH   5   6
ENDBRANCH   3   5
ENDBRANCH   1   3
TORSDOF 15
ENDMDL
MODEL 8
REMARK VINA RESULT:      -4.1     21.396     24.248
REMARK  15 active torsions:
REMARK  status: ('A' for Active; 'I' for Inactive)
REMARK    1  A    between atoms: O_1  and  C_22 
REMARK    2  A    between atoms: C_3  and  C_4 
REMARK    3  A    between atoms: C_3  and  C_5 
REMARK    4  A    between atoms: C_4  and  C_6 
REMARK    5  A    between atoms: C_5  and  C_7 
REMARK    6  A    between atoms: C_9  and  C_10 
REMARK    7  A    between atoms: C_9  and  C_13 
REMARK    8  A    between atoms: C_10  and  C_14 
REMARK    9  A    between atoms: C_11  and  C_12 
REMARK   10  A    between atoms: C_12  and  C_16 
REMARK   11  A    between atoms: C_13  and  C_22 
REMARK   12  A    between atoms: C_15  and  C_17 
REMARK   13  A    between atoms: C_15  and  C_20 
REMARK   14  A    between atoms: C_18  and  C_19 
REMARK   15  A    between atoms: C_18  and  C_21 
ROOT
HETATM    1  O   UNL     1      46.804  -4.127 -16.971  1.00  0.00    -0.776 OA
HETATM    2  H   UNL     1      47.467  -3.492 -17.276  1.00  0.00     0.167 HD
ENDROOT
BRANCH   1   3
HETATM    3  C   UNL     1      46.942  -5.451 -17.196  1.00  0.00     0.139 C 
HETATM    4  O   UNL     1      47.151  -6.213 -16.263  1.00  0.00    -0.650 OA
BRANCH   3   5
HETATM    5  C   UNL     1      46.852  -5.984 -18.599  1.00  0.00     0.110 C 
BRANCH   5   6
HETATM    6  C   UNL     1      48.019  -6.919 -18.945  1.00  0.00     0.014 C 
BRANCH   6   7
HETATM    7  C   UNL     1      48.302  -6.980 -20.452  1.00  0.00     0.027 C 
BRANCH   7   8
HETATM    8  C   UNL     1      48.000  -5.643 -21.080  1.00  0.00    -0.030 C 
HETATM    9  C   UNL     1      47.369  -5.461 -22.255  1.00  0.00    -0.027 C 
BRANCH   9  10
HETATM   10  C   UNL     1      46.832  -6.559 -23.138  1.00  0.00     0.053 C 
BRANCH  10  11
HETATM   11  C   UNL     1      47.878  -7.622 -23.390  1.00  0.00    -0.027 C 
HETATM   12  C   UNL     1      47.909  -8.520 -24.395  1.00  0.00    -0.027 C 
BRANCH  12  13
HETATM   13  C   UNL     1      46.913  -8.660 -25.518  1.00  0.00     0.053 C 
BRANCH  13  14
HETATM   14  C   UNL     1      45.728  -9.476 -25.059  1.00  0.00    -0.027 C 
HETATM   15  C   UNL     1      44.453  -9.276 -25.449  1.00  0.00    -0.027 C 
BRANCH  15  16
HETATM   16  C   UNL     1      44.010  -8.190 -26.395  1.00  0.00     0.053 C 
BRANCH  16  17
HETATM   17  C   UNL     1      43.393  -7.030 -25.656  1.00  0.00    -0.027 C 
HETATM   18  C   UNL     1      43.987  -5.832 -25.510  1.00  0.00    -0.030 C 
BRANCH  18  19
HETATM   19  C   UNL     1      45.350  -5.477 -26.049  1.00  0.00     0.027 C 
BRANCH  19  20
HETATM   20  C   UNL     1      45.198  -4.561 -27.268  1.00  0.00     0.004 C 
BRANCH  20  21
HETATM   21  C   UNL     1      46.536  -4.376 -27.993  1.00  0.00    -0.000 C 
BRANCH  21  22
HETATM   22  C   UNL     1      47.638  -3.969 -27.009  1.00  0.00    -0.005 C 
HETATM   23  C   UNL     1      48.280  -2.646 -27.416  1.00  0.00     0.005 C 
ENDBRANCH  21  22
ENDBRANCH  20  21
ENDBRANCH  19  20
ENDBRANCH  18  19
ENDBRANCH  16  17
ENDBRANCH  15  16
ENDBRANCH  13  14
ENDBRANCH  12  13
ENDBRANCH  10  11
ENDBRANCH   9  10
ENDBRANCH   7   8
ENDBRANCH   6   7
ENDBRANCH   5   6
ENDBRANCH   3   5
ENDBRANCH   1   3
TORSDOF 15
ENDMDL
MODEL 9
REMARK VINA RESULT:      -4.1     47.746     49.665
REMARK  15 active torsions:
REMARK  status: ('A' for Active; 'I' for Inactive)
REMARK    1  A    between atoms: O_1  and  C_22 
REMARK    2  A    between atoms: C_3  and  C_4 
REMARK    3  A    between atoms: C_3  and  C_5 
REMARK    4  A    between atoms: C_4  and  C_6 
REMARK    5  A    between atoms: C_5  and  C_7 
REMARK    6  A    between atoms: C_9  and  C_10 
REMARK    7  A    between atoms: C_9  and  C_13 
REMARK    8  A    between atoms: C_10  and  C_14 
REMARK    9  A    between atoms: C_11  and  C_12 
REMARK   10  A    between atoms: C_12  and  C_16 
REMARK   11  A    between atoms: C_13  and  C_22 
REMARK   12  A    between atoms: C_15  and  C_17 
REMARK   13  A    between atoms: C_15  and  C_20 
REMARK   14  A    between atoms: C_18  and  C_19 
REMARK   15  A    between atoms: C_18  and  C_21 
ROOT
HETATM    1  O   UNL     1     -18.694  10.401 -17.798  1.00  0.00    -0.776 OA
HETATM    2  H   UNL     1     -19.496   9.904 -17.583  1.00  0.00     0.167 HD
ENDROOT
BRANCH   1   3
HETATM    3  C   UNL     1     -18.740  11.718 -18.089  1.00  0.00     0.139 C 
HETATM    4  O   UNL     1     -17.868  12.224 -18.780  1.00  0.00    -0.650 OA
BRANCH   3   5
HETATM    5  C   UNL     1     -19.862  12.564 -17.552  1.00  0.00     0.110 C 
BRANCH   5   6
HETATM    6  C   UNL     1     -20.136  12.295 -16.065  1.00  0.00     0.014 C 
BRANCH   6   7
HETATM    7  C   UNL     1     -19.294  13.183 -15.139  1.00  0.00     0.027 C 
BRANCH   7   8
HETATM    8  C   UNL     1     -18.553  12.323 -14.146  1.00  0.00    -0.030 C 
HETATM    9  C   UNL     1     -17.293  11.873 -14.297  1.00  0.00    -0.027 C 
BRANCH   9  10
HETATM   10  C   UNL     1     -16.394  12.169 -15.471  1.00  0.00     0.053 C 
BRANCH  10  11
HETATM   11  C   UNL     1     -15.569  10.958 -15.848  1.00  0.00    -0.027 C 
HETATM   12  C   UNL     1     -14.306  10.675 -15.469  1.00  0.00    -0.027 C 
BRANCH  12  13
HETATM   13  C   UNL     1     -13.426  11.495 -14.561  1.00  0.00     0.053 C 
BRANCH  13  14
HETATM   14  C   UNL     1     -12.629  10.586 -13.655  1.00  0.00    -0.027 C 
HETATM   15  C   UNL     1     -13.071  10.078 -12.486  1.00  0.00    -0.027 C 
BRANCH  15  16
HETATM   16  C   UNL     1     -14.428  10.355 -11.893  1.00  0.00     0.053 C 
BRANCH  16  17
HETATM   17  C   UNL     1     -14.373  11.476 -10.886  1.00  0.00    -0.027 C 
HETATM   18  C   UNL     1     -15.427  11.877 -10.153  1.00  0.00    -0.030 C 
BRANCH  18  19
HETATM   19  C   UNL     1     -16.810  11.282 -10.236  1.00  0.00     0.027 C 
BRANCH  19  20
HETATM   20  C   UNL     1     -17.795  12.158  -9.457  1.00  0.00     0.004 C 
BRANCH  20  21
HETATM   21  C   UNL     1     -18.680  12.976 -10.404  1.00  0.00    -0.000 C 
BRANCH  21  22
HETATM   22  C   UNL     1     -19.996  13.368  -9.721  1.00  0.00    -0.005 C 
HETATM   23  C   UNL     1     -21.198  12.958 -10.566  1.00  0.00     0.005 C 
ENDBRANCH  21  22
ENDBRANCH  20  21
ENDBRANCH  19  20
ENDBRANCH  18  19
ENDBRANCH  16  17
ENDBRANCH  15  16
ENDBRANCH  13  14
ENDBRANCH  12  13
ENDBRANCH  10  11
ENDBRANCH   9  10
ENDBRANCH   7   8
ENDBRANCH   6   7
ENDBRANCH   5   6
ENDBRANCH   3   5
ENDBRANCH   1   3
TORSDOF 15
ENDMDL
MODEL 10
REMARK VINA RESULT:      -4.1      3.771      7.079
REMARK  15 active torsions:
REMARK  status: ('A' for Active; 'I' for Inactive)
REMARK    1  A    between atoms: O_1  and  C_22 
REMARK    2  A    between atoms: C_3  and  C_4 
REMARK    3  A    between atoms: C_3  and  C_5 
REMARK    4  A    between atoms: C_4  and  C_6 
REMARK    5  A    between atoms: C_5  and  C_7 
REMARK    6  A    between atoms: C_9  and  C_10 
REMARK    7  A    between atoms: C_9  and  C_13 
REMARK    8  A    between atoms: C_10  and  C_14 
REMARK    9  A    between atoms: C_11  and  C_12 
REMARK   10  A    between atoms: C_12  and  C_16 
REMARK   11  A    between atoms: C_13  and  C_22 
REMARK   12  A    between atoms: C_15  and  C_17 
REMARK   13  A    between atoms: C_15  and  C_20 
REMARK   14  A    between atoms: C_18  and  C_19 
REMARK   15  A    between atoms: C_18  and  C_21 
ROOT
HETATM    1  O   UNL     1      28.289   9.916 -10.278  1.00  0.00    -0.776 OA
HETATM    2  H   UNL     1      27.378  10.018 -10.587  1.00  0.00     0.167 HD
ENDROOT
BRANCH   1   3
HETATM    3  C   UNL     1      28.852  10.814  -9.442  1.00  0.00     0.139 C 
HETATM    4  O   UNL     1      28.425  11.958  -9.392  1.00  0.00    -0.650 OA
BRANCH   3   5
HETATM    5  C   UNL     1      30.015  10.405  -8.579  1.00  0.00     0.110 C 
BRANCH   5   6
HETATM    6  C   UNL     1      30.813  11.611  -8.065  1.00  0.00     0.014 C 
BRANCH   6   7
HETATM    7  C   UNL     1      31.587  11.303  -6.776  1.00  0.00     0.027 C 
BRANCH   7   8
HETATM    8  C   UNL     1      33.066  11.266  -7.068  1.00  0.00    -0.030 C 
HETATM    9  C   UNL     1      33.782  10.152  -7.313  1.00  0.00    -0.027 C 
BRANCH   9  10
HETATM   10  C   UNL     1      33.228   8.750  -7.362  1.00  0.00     0.053 C 
BRANCH  10  11
HETATM   11  C   UNL     1      33.311   8.177  -8.759  1.00  0.00    -0.027 C 
HETATM   12  C   UNL     1      33.159   6.888  -9.127  1.00  0.00    -0.027 C 
BRANCH  12  13
HETATM   13  C   UNL     1      32.849   5.718  -8.228  1.00  0.00     0.053 C 
BRANCH  13  14
HETATM   14  C   UNL     1      31.394   5.336  -8.359  1.00  0.00    -0.027 C 
HETATM   15  C   UNL     1      30.436   5.616  -7.452  1.00  0.00    -0.027 C 
BRANCH  15  16
HETATM   16  C   UNL     1      30.676   6.340  -6.153  1.00  0.00     0.053 C 
BRANCH  16  17
HETATM   17  C   UNL     1      30.991   5.379  -5.034  1.00  0.00    -0.027 C 
HETATM   18  C   UNL     1      32.139   5.394  -4.333  1.00  0.00    -0.030 C 
BRANCH  18  19
HETATM   19  C   UNL     1      33.276   6.357  -4.566  1.00  0.00     0.027 C 
BRANCH  19  20
HETATM   20  C   UNL     1      33.438   7.267  -3.343  1.00  0.00     0.004 C 
BRANCH  20  21
HETATM   21  C   UNL     1      33.265   8.741  -3.722  1.00  0.00    -0.000 C 
BRANCH  21  22
HETATM   22  C   UNL     1      31.783   9.086  -3.913  1.00  0.00    -0.005 C 
HETATM   23  C   UNL     1      30.952   8.628  -2.718  1.00  0.00     0.005 C 
ENDBRANCH  21  22
ENDBRANCH  20  21
ENDBRANCH  19  20
ENDBRANCH  18  19
ENDBRANCH  16  17
ENDBRANCH  15  16
ENDBRANCH  13  14
ENDBRANCH  12  13
ENDBRANCH  10  11
ENDBRANCH   9  10
ENDBRANCH   7   8
ENDBRANCH   6   7
ENDBRANCH   5   6
ENDBRANCH   3   5
ENDBRANCH   1   3
TORSDOF 15
ENDMDL
MODEL 11
REMARK VINA RESULT:      -4.1     48.999     50.459
REMARK  15 active torsions:
REMARK  status: ('A' for Active; 'I' for Inactive)
REMARK    1  A    between atoms: O_1  and  C_22 
REMARK    2  A    between atoms: C_3  and  C_4 
REMARK    3  A    between atoms: C_3  and  C_5 
REMARK    4  A    between atoms: C_4  and  C_6 
REMARK    5  A    between atoms: C_5  and  C_7 
REMARK    6  A    between atoms: C_9  and  C_10 
REMARK    7  A    between atoms: C_9  and  C_13 
REMARK    8  A    between atoms: C_10  and  C_14 
REMARK    9  A    between atoms: C_11  and  C_12 
REMARK   10  A    between atoms: C_12  and  C_16 
REMARK   11  A    between atoms: C_13  and  C_22 
REMARK   12  A    between atoms: C_15  and  C_17 
REMARK   13  A    between atoms: C_15  and  C_20 
REMARK   14  A    between atoms: C_18  and  C_19 
REMARK   15  A    between atoms: C_18  and  C_21 
ROOT
HETATM    1  O   UNL     1     -22.412  12.796 -18.281  1.00  0.00    -0.776 OA
HETATM    2  H   UNL     1     -22.446  11.846 -18.465  1.00  0.00     0.167 HD
ENDROOT
BRANCH   1   3
HETATM    3  C   UNL     1     -22.119  13.262 -17.048  1.00  0.00     0.139 C 
HETATM    4  O   UNL     1     -23.012  13.671 -16.320  1.00  0.00    -0.650 OA
BRANCH   3   5
HETATM    5  C   UNL     1     -20.691  13.289 -16.579  1.00  0.00     0.110 C 
BRANCH   5   6
HETATM    6  C   UNL     1     -20.216  11.919 -16.074  1.00  0.00     0.014 C 
BRANCH   6   7
HETATM    7  C   UNL     1     -18.702  11.724 -16.228  1.00  0.00     0.027 C 
BRANCH   7   8
HETATM    8  C   UNL     1     -17.993  12.278 -15.017  1.00  0.00    -0.030 C 
HETATM    9  C   UNL     1     -16.705  12.050 -14.700  1.00  0.00    -0.027 C 
BRANCH   9  10
HETATM   10  C   UNL     1     -15.738  11.223 -15.510  1.00  0.00     0.053 C 
BRANCH  10  11
HETATM   11  C   UNL     1     -14.313  11.683 -15.299  1.00  0.00    -0.027 C 
HETATM   12  C   UNL     1     -13.202  11.220 -15.909  1.00  0.00    -0.027 C 
BRANCH  12  13
HETATM   13  C   UNL     1     -13.128  10.145 -16.964  1.00  0.00     0.053 C 
BRANCH  13  14
HETATM   14  C   UNL     1     -12.709  10.746 -18.285  1.00  0.00    -0.027 C 
HETATM   15  C   UNL     1     -13.555  11.159 -19.250  1.00  0.00    -0.027 C 
BRANCH  15  16
HETATM   16  C   UNL     1     -15.057  11.068 -19.165  1.00  0.00     0.053 C 
BRANCH  16  17
HETATM   17  C   UNL     1     -15.693  11.127 -20.532  1.00  0.00    -0.027 C 
HETATM   18  C   UNL     1     -16.843  11.771 -20.796  1.00  0.00    -0.030 C 
BRANCH  18  19
HETATM   19  C   UNL     1     -17.668  12.513 -19.775  1.00  0.00     0.027 C 
BRANCH  19  20
HETATM   20  C   UNL     1     -19.035  11.837 -19.629  1.00  0.00     0.004 C 
BRANCH  20  21
HETATM   21  C   UNL     1     -19.776  11.788 -20.969  1.00  0.00    -0.000 C 
BRANCH  21  22
HETATM   22  C   UNL     1     -20.443  13.134 -21.275  1.00  0.00    -0.005 C 
HETATM   23  C   UNL     1     -20.404  13.442 -22.768  1.00  0.00     0.005 C 
ENDBRANCH  21  22
ENDBRANCH  20  21
ENDBRANCH  19  20
ENDBRANCH  18  19
ENDBRANCH  16  17
ENDBRANCH  15  16
ENDBRANCH  13  14
ENDBRANCH  12  13
ENDBRANCH  10  11
ENDBRANCH   9  10
ENDBRANCH   7   8
ENDBRANCH   6   7
ENDBRANCH   5   6
ENDBRANCH   3   5
ENDBRANCH   1   3
TORSDOF 15
ENDMDL
MODEL 12
REMARK VINA RESULT:      -4.1      2.171      3.515
REMARK  15 active torsions:
REMARK  status: ('A' for Active; 'I' for Inactive)
REMARK    1  A    between atoms: O_1  and  C_22 
REMARK    2  A    between atoms: C_3  and  C_4 
REMARK    3  A    between atoms: C_3  and  C_5 
REMARK    4  A    between atoms: C_4  and  C_6 
REMARK    5  A    between atoms: C_5  and  C_7 
REMARK    6  A    between atoms: C_9  and  C_10 
REMARK    7  A    between atoms: C_9  and  C_13 
REMARK    8  A    between atoms: C_10  and  C_14 
REMARK    9  A    between atoms: C_11  and  C_12 
REMARK   10  A    between atoms: C_12  and  C_16 
REMARK   11  A    between atoms: C_13  and  C_22 
REMARK   12  A    between atoms: C_15  and  C_17 
REMARK   13  A    between atoms: C_15  and  C_20 
REMARK   14  A    between atoms: C_18  and  C_19 
REMARK   15  A    between atoms: C_18  and  C_21 
ROOT
HETATM    1  O   UNL     1      30.343   8.981  -6.790  1.00  0.00    -0.776 OA
HETATM    2  H   UNL     1      30.654   8.994  -7.706  1.00  0.00     0.167 HD
ENDROOT
BRANCH   1   3
HETATM    3  C   UNL     1      30.798   8.067  -5.907  1.00  0.00     0.139 C 
HETATM    4  O   UNL     1      30.380   8.065  -4.758  1.00  0.00    -0.650 OA
BRANCH   3   5
HETATM    5  C   UNL     1      31.827   7.059  -6.337  1.00  0.00     0.110 C 
BRANCH   5   6
HETATM    6  C   UNL     1      31.258   5.635  -6.405  1.00  0.00     0.014 C 
BRANCH   6   7
HETATM    7  C   UNL     1      30.755   5.265  -7.806  1.00  0.00     0.027 C 
BRANCH   7   8
HETATM    8  C   UNL     1      31.851   5.494  -8.816  1.00  0.00    -0.030 C 
HETATM    9  C   UNL     1      31.745   6.263  -9.916  1.00  0.00    -0.027 C 
BRANCH   9  10
HETATM   10  C   UNL     1      30.523   7.048 -10.320  1.00  0.00     0.053 C 
BRANCH  10  11
HETATM   11  C   UNL     1      30.876   8.482 -10.648  1.00  0.00    -0.027 C 
HETATM   12  C   UNL     1      31.197   8.992 -11.854  1.00  0.00    -0.027 C 
BRANCH  12  13
HETATM   13  C   UNL     1      31.260   8.251 -13.166  1.00  0.00     0.053 C 
BRANCH  13  14
HETATM   14  C   UNL     1      32.686   7.856 -13.469  1.00  0.00    -0.027 C 
HETATM   15  C   UNL     1      33.114   6.592 -13.661  1.00  0.00    -0.027 C 
BRANCH  15  16
HETATM   16  C   UNL     1      32.234   5.371 -13.584  1.00  0.00     0.053 C 
BRANCH  16  17
HETATM   17  C   UNL     1      31.048   5.487 -14.508  1.00  0.00    -0.027 C 
HETATM   18  C   UNL     1      31.086   5.188 -15.819  1.00  0.00    -0.030 C 
BRANCH  18  19
HETATM   19  C   UNL     1      32.310   4.708 -16.556  1.00  0.00     0.027 C 
BRANCH  19  20
HETATM   20  C   UNL     1      33.091   5.912 -17.095  1.00  0.00     0.004 C 
BRANCH  20  21
HETATM   21  C   UNL     1      32.179   6.853 -17.891  1.00  0.00    -0.000 C 
BRANCH  21  22
HETATM   22  C   UNL     1      32.255   8.282 -17.340  1.00  0.00    -0.005 C 
HETATM   23  C   UNL     1      30.908   8.729 -16.782  1.00  0.00     0.005 C 
ENDBRANCH  21  22
ENDBRANCH  20  21
ENDBRANCH  19  20
ENDBRANCH  18  19
ENDBRANCH  16  17
ENDBRANCH  15  16
ENDBRANCH  13  14
ENDBRANCH  12  13
ENDBRANCH  10  11
ENDBRANCH   9  10
ENDBRANCH   7   8
ENDBRANCH   6   7
ENDBRANCH   5   6
ENDBRANCH   3   5
ENDBRANCH   1   3
TORSDOF 15
ENDMDL
MODEL 13
REMARK VINA RESULT:      -4.0      3.636      5.914
REMARK  15 active torsions:
REMARK  status: ('A' for Active; 'I' for Inactive)
REMARK    1  A    between atoms: O_1  and  C_22 
REMARK    2  A    between atoms: C_3  and  C_4 
REMARK    3  A    between atoms: C_3  and  C_5 
REMARK    4  A    between atoms: C_4  and  C_6 
REMARK    5  A    between atoms: C_5  and  C_7 
REMARK    6  A    between atoms: C_9  and  C_10 
REMARK    7  A    between atoms: C_9  and  C_13 
REMARK    8  A    between atoms: C_10  and  C_14 
REMARK    9  A    between atoms: C_11  and  C_12 
REMARK   10  A    between atoms: C_12  and  C_16 
REMARK   11  A    between atoms: C_13  and  C_22 
REMARK   12  A    between atoms: C_15  and  C_17 
REMARK   13  A    between atoms: C_15  and  C_20 
REMARK   14  A    between atoms: C_18  and  C_19 
REMARK   15  A    between atoms: C_18  and  C_21 
ROOT
HETATM    1  O   UNL     1      29.889   6.733 -11.436  1.00  0.00    -0.776 OA
HETATM    2  H   UNL     1      29.111   6.839 -12.002  1.00  0.00     0.167 HD
ENDROOT
BRANCH   1   3
HETATM    3  C   UNL     1      30.577   7.802 -10.981  1.00  0.00     0.139 C 
HETATM    4  O   UNL     1      30.385   8.907 -11.468  1.00  0.00    -0.650 OA
BRANCH   3   5
HETATM    5  C   UNL     1      31.588   7.627  -9.882  1.00  0.00     0.110 C 
BRANCH   5   6
HETATM    6  C   UNL     1      32.080   6.177  -9.766  1.00  0.00     0.014 C 
BRANCH   6   7
HETATM    7  C   UNL     1      33.265   5.879 -10.694  1.00  0.00     0.027 C 
BRANCH   7   8
HETATM    8  C   UNL     1      32.831   4.932 -11.784  1.00  0.00    -0.030 C 
HETATM    9  C   UNL     1      32.618   5.273 -13.069  1.00  0.00    -0.027 C 
BRANCH   9  10
HETATM   10  C   UNL     1      32.798   6.653 -13.649  1.00  0.00     0.053 C 
BRANCH  10  11
HETATM   11  C   UNL     1      33.584   6.606 -14.941  1.00  0.00    -0.027 C 
HETATM   12  C   UNL     1      33.184   7.022 -16.160  1.00  0.00    -0.027 C 
BRANCH  12  13
HETATM   13  C   UNL     1      31.862   7.652 -16.515  1.00  0.00     0.053 C 
BRANCH  13  14
HETATM   14  C   UNL     1      30.756   6.629 -16.405  1.00  0.00    -0.027 C 
HETATM   15  C   UNL     1      30.599   5.569 -17.223  1.00  0.00    -0.027 C 
BRANCH  15  16
HETATM   16  C   UNL     1      31.498   5.249 -18.389  1.00  0.00     0.053 C 
BRANCH  16  17
HETATM   17  C   UNL     1      30.789   5.452 -19.705  1.00  0.00    -0.027 C 
HETATM   18  C   UNL     1      31.096   6.426 -20.579  1.00  0.00    -0.030 C 
BRANCH  18  19
HETATM   19  C   UNL     1      32.175   7.459 -20.372  1.00  0.00     0.027 C 
BRANCH  19  20
HETATM   20  C   UNL     1      31.538   8.797 -19.980  1.00  0.00     0.004 C 
BRANCH  20  21
HETATM   21  C   UNL     1      32.583   9.764 -19.413  1.00  0.00    -0.000 C 
BRANCH  21  22
HETATM   22  C   UNL     1      33.943   9.072 -19.264  1.00  0.00    -0.005 C 
HETATM   23  C   UNL     1      34.800   9.763 -18.207  1.00  0.00     0.005 C 
ENDBRANCH  21  22
ENDBRANCH  20  21
ENDBRANCH  19  20
ENDBRANCH  18  19
ENDBRANCH  16  17
ENDBRANCH  15  16
ENDBRANCH  13  14
ENDBRANCH  12  13
ENDBRANCH  10  11
ENDBRANCH   9  10
ENDBRANCH   7   8
ENDBRANCH   6   7
ENDBRANCH   5   6
ENDBRANCH   3   5
ENDBRANCH   1   3
TORSDOF 15
ENDMDL
MODEL 14
REMARK VINA RESULT:      -4.0     46.925     49.276
REMARK  15 active torsions:
REMARK  status: ('A' for Active; 'I' for Inactive)
REMARK    1  A    between atoms: O_1  and  C_22 
REMARK    2  A    between atoms: C_3  and  C_4 
REMARK    3  A    between atoms: C_3  and  C_5 
REMARK    4  A    between atoms: C_4  and  C_6 
REMARK    5  A    between atoms: C_5  and  C_7 
REMARK    6  A    between atoms: C_9  and  C_10 
REMARK    7  A    between atoms: C_9  and  C_13 
REMARK    8  A    between atoms: C_10  and  C_14 
REMARK    9  A    between atoms: C_11  and  C_12 
REMARK   10  A    between atoms: C_12  and  C_16 
REMARK   11  A    between atoms: C_13  and  C_22 
REMARK   12  A    between atoms: C_15  and  C_17 
REMARK   13  A    between atoms: C_15  and  C_20 
REMARK   14  A    between atoms: C_18  and  C_19 
REMARK   15  A    between atoms: C_18  and  C_21 
ROOT
HETATM    1  O   UNL     1     -16.495   8.792 -12.413  1.00  0.00    -0.776 OA
HETATM    2  H   UNL     1     -17.178   9.439 -12.186  1.00  0.00     0.167 HD
ENDROOT
BRANCH   1   3
HETATM    3  C   UNL     1     -15.224   9.170 -12.663  1.00  0.00     0.139 C 
HETATM    4  O   UNL     1     -14.406   8.348 -13.051  1.00  0.00    -0.650 OA
BRANCH   3   5
HETATM    5  C   UNL     1     -14.814  10.602 -12.453  1.00  0.00     0.110 C 
BRANCH   5   6
HETATM    6  C   UNL     1     -13.555  10.727 -11.583  1.00  0.00     0.014 C 
BRANCH   6   7
HETATM    7  C   UNL     1     -13.786  11.581 -10.329  1.00  0.00     0.027 C 
BRANCH   7   8
HETATM    8  C   UNL     1     -14.631  10.816  -9.342  1.00  0.00    -0.030 C 
HETATM    9  C   UNL     1     -15.912  11.095  -9.037  1.00  0.00    -0.027 C 
BRANCH   9  10
HETATM   10  C   UNL     1     -16.735  12.203  -9.645  1.00  0.00     0.053 C 
BRANCH  10  11
HETATM   11  C   UNL     1     -17.851  11.650 -10.504  1.00  0.00    -0.027 C 
HETATM   12  C   UNL     1     -19.081  12.172 -10.685  1.00  0.00    -0.027 C 
BRANCH  12  13
HETATM   13  C   UNL     1     -19.625  13.444 -10.087  1.00  0.00     0.053 C 
BRANCH  13  14
HETATM   14  C   UNL     1     -20.839  13.140  -9.242  1.00  0.00    -0.027 C 
HETATM   15  C   UNL     1     -20.815  12.888  -7.917  1.00  0.00    -0.027 C 
BRANCH  15  16
HETATM   16  C   UNL     1     -19.566  12.854  -7.077  1.00  0.00     0.053 C 
BRANCH  16  17
HETATM   17  C   UNL     1     -19.114  11.439  -6.815  1.00  0.00    -0.027 C 
HETATM   18  C   UNL     1     -18.148  11.109  -5.940  1.00  0.00    -0.030 C 
BRANCH  18  19
HETATM   19  C   UNL     1     -17.372  12.096  -5.105  1.00  0.00     0.027 C 
BRANCH  19  20
HETATM   20  C   UNL     1     -15.870  11.895  -5.335  1.00  0.00     0.004 C 
BRANCH  20  21
HETATM   21  C   UNL     1     -15.240  11.078  -4.202  1.00  0.00    -0.000 C 
BRANCH  21  22
HETATM   22  C   UNL     1     -13.740  10.872  -4.446  1.00  0.00    -0.005 C 
HETATM   23  C   UNL     1     -13.350  11.288  -5.861  1.00  0.00     0.005 C 
ENDBRANCH  21  22
ENDBRANCH  20  21
ENDBRANCH  19  20
ENDBRANCH  18  19
ENDBRANCH  16  17
ENDBRANCH  15  16
ENDBRANCH  13  14
ENDBRANCH  12  13
ENDBRANCH  10  11
ENDBRANCH   9  10
ENDBRANCH   7   8
ENDBRANCH   6   7
ENDBRANCH   5   6
ENDBRANCH   3   5
ENDBRANCH   1   3
TORSDOF 15
ENDMDL
MODEL 15
REMARK VINA RESULT:      -4.0     45.989     47.926
REMARK  15 active torsions:
REMARK  status: ('A' for Active; 'I' for Inactive)
REMARK    1  A    between atoms: O_1  and  C_22 
REMARK    2  A    between atoms: C_3  and  C_4 
REMARK    3  A    between atoms: C_3  and  C_5 
REMARK    4  A    between atoms: C_4  and  C_6 
REMARK    5  A    between atoms: C_5  and  C_7 
REMARK    6  A    between atoms: C_9  and  C_10 
REMARK    7  A    between atoms: C_9  and  C_13 
REMARK    8  A    between atoms: C_10  and  C_14 
REMARK    9  A    between atoms: C_11  and  C_12 
REMARK   10  A    between atoms: C_12  and  C_16 
REMARK   11  A    between atoms: C_13  and  C_22 
REMARK   12  A    between atoms: C_15  and  C_17 
REMARK   13  A    between atoms: C_15  and  C_20 
REMARK   14  A    between atoms: C_18  and  C_19 
REMARK   15  A    between atoms: C_18  and  C_21 
ROOT
HETATM    1  O   UNL     1     -17.903  11.772  -7.041  1.00  0.00    -0.776 OA
HETATM    2  H   UNL     1     -18.698  12.246  -6.759  1.00  0.00     0.167 HD
ENDROOT
BRANCH   1   3
HETATM    3  C   UNL     1     -17.812  11.220  -8.270  1.00  0.00     0.139 C 
HETATM    4  O   UNL     1     -18.006  10.023  -8.420  1.00  0.00    -0.650 OA
BRANCH   3   5
HETATM    5  C   UNL     1     -17.460  12.082  -9.452  1.00  0.00     0.110 C 
BRANCH   5   6
HETATM    6  C   UNL     1     -18.703  12.626 -10.169  1.00  0.00     0.014 C 
BRANCH   6   7
HETATM    7  C   UNL     1     -18.769  12.205 -11.642  1.00  0.00     0.027 C 
BRANCH   7   8
HETATM    8  C   UNL     1     -17.662  11.225 -11.940  1.00  0.00    -0.030 C 
HETATM    9  C   UNL     1     -16.973  11.159 -13.095  1.00  0.00    -0.027 C 
BRANCH   9  10
HETATM   10  C   UNL     1     -17.169  12.066 -14.283  1.00  0.00     0.053 C 
BRANCH  10  11
HETATM   11  C   UNL     1     -16.656  11.425 -15.553  1.00  0.00    -0.027 C 
HETATM   12  C   UNL     1     -15.376  11.345 -15.972  1.00  0.00    -0.027 C 
BRANCH  12  13
HETATM   13  C   UNL     1     -14.153  11.861 -15.258  1.00  0.00     0.053 C 
BRANCH  13  14
HETATM   14  C   UNL     1     -13.118  10.767 -15.148  1.00  0.00    -0.027 C 
HETATM   15  C   UNL     1     -12.888  10.028 -14.043  1.00  0.00    -0.027 C 
BRANCH  15  16
HETATM   16  C   UNL     1     -13.620  10.193 -12.738  1.00  0.00     0.053 C 
BRANCH  16  17
HETATM   17  C   UNL     1     -12.799  10.967 -11.737  1.00  0.00    -0.027 C 
HETATM   18  C   UNL     1     -12.641  10.600 -10.453  1.00  0.00    -0.030 C 
BRANCH  18  19
HETATM   19  C   UNL     1     -13.266   9.381  -9.824  1.00  0.00     0.027 C 
BRANCH  19  20
HETATM   20  C   UNL     1     -14.370   9.811  -8.853  1.00  0.00     0.004 C 
BRANCH  20  21
HETATM   21  C   UNL     1     -13.794  10.588  -7.665  1.00  0.00    -0.000 C 
BRANCH  21  22
HETATM   22  C   UNL     1     -14.692  10.444  -6.431  1.00  0.00    -0.005 C 
HETATM   23  C   UNL     1     -14.662  11.708  -5.577  1.00  0.00     0.005 C 
ENDBRANCH  21  22
ENDBRANCH  20  21
ENDBRANCH  19  20
ENDBRANCH  18  19
ENDBRANCH  16  17
ENDBRANCH  15  16
ENDBRANCH  13  14
ENDBRANCH  12  13
ENDBRANCH  10  11
ENDBRANCH   9  10
ENDBRANCH   7   8
ENDBRANCH   6   7
ENDBRANCH   5   6
ENDBRANCH   3   5
ENDBRANCH   1   3
TORSDOF 15
ENDMDL
MODEL 16
REMARK VINA RESULT:      -4.0     46.878     48.744
REMARK  15 active torsions:
REMARK  status: ('A' for Active; 'I' for Inactive)
REMARK    1  A    between atoms: O_1  and  C_22 
REMARK    2  A    between atoms: C_3  and  C_4 
REMARK    3  A    between atoms: C_3  and  C_5 
REMARK    4  A    between atoms: C_4  and  C_6 
REMARK    5  A    between atoms: C_5  and  C_7 
REMARK    6  A    between atoms: C_9  and  C_10 
REMARK    7  A    between atoms: C_9  and  C_13 
REMARK    8  A    between atoms: C_10  and  C_14 
REMARK    9  A    between atoms: C_11  and  C_12 
REMARK   10  A    between atoms: C_12  and  C_16 
REMARK   11  A    between atoms: C_13  and  C_22 
REMARK   12  A    between atoms: C_15  and  C_17 
REMARK   13  A    between atoms: C_15  and  C_20 
REMARK   14  A    between atoms: C_18  and  C_19 
REMARK   15  A    between atoms: C_18  and  C_21 
ROOT
HETATM    1  O   UNL     1     -17.621   5.884 -12.011  1.00  0.00    -0.776 OA
HETATM    2  H   UNL     1     -16.792   5.831 -12.507  1.00  0.00     0.167 HD
ENDROOT
BRANCH   1   3
HETATM    3  C   UNL     1     -18.019   7.035 -11.429  1.00  0.00     0.139 C 
HETATM    4  O   UNL     1     -18.998   7.045 -10.697  1.00  0.00    -0.650 OA
BRANCH   3   5
HETATM    5  C   UNL     1     -17.263   8.308 -11.694  1.00  0.00     0.110 C 
BRANCH   5   6
HETATM    6  C   UNL     1     -16.369   8.207 -12.939  1.00  0.00     0.014 C 
BRANCH   6   7
HETATM    7  C   UNL     1     -14.893   8.486 -12.631  1.00  0.00     0.027 C 
BRANCH   7   8
HETATM    8  C   UNL     1     -14.053   8.176 -13.845  1.00  0.00    -0.030 C 
HETATM    9  C   UNL     1     -13.293   9.065 -14.511  1.00  0.00    -0.027 C 
BRANCH   9  10
HETATM   10  C   UNL     1     -13.127  10.519 -14.148  1.00  0.00     0.053 C 
BRANCH  10  11
HETATM   11  C   UNL     1     -13.705  11.421 -15.217  1.00  0.00    -0.027 C 
HETATM   12  C   UNL     1     -14.971  11.878 -15.307  1.00  0.00    -0.027 C 
BRANCH  12  13
HETATM   13  C   UNL     1     -16.103  11.612 -14.348  1.00  0.00     0.053 C 
BRANCH  13  14
HETATM   14  C   UNL     1     -17.355  12.315 -14.818  1.00  0.00    -0.027 C 
HETATM   15  C   UNL     1     -18.535  12.312 -14.165  1.00  0.00    -0.027 C 
BRANCH  15  16
HETATM   16  C   UNL     1     -18.792  11.588 -12.869  1.00  0.00     0.053 C 
BRANCH  16  17
HETATM   17  C   UNL     1     -19.337  12.519 -11.815  1.00  0.00    -0.027 C 
HETATM   18  C   UNL     1     -18.998  12.460 -10.515  1.00  0.00    -0.030 C 
BRANCH  18  19
HETATM   19  C   UNL     1     -18.041  11.458  -9.920  1.00  0.00     0.027 C 
BRANCH  19  20
HETATM   20  C   UNL     1     -16.672  12.113  -9.714  1.00  0.00     0.004 C 
BRANCH  20  21
HETATM   21  C   UNL     1     -15.627  11.531 -10.673  1.00  0.00    -0.000 C 
BRANCH  21  22
HETATM   22  C   UNL     1     -14.449  10.929  -9.897  1.00  0.00    -0.005 C 
HETATM   23  C   UNL     1     -13.122  11.243 -10.581  1.00  0.00     0.005 C 
ENDBRANCH  21  22
ENDBRANCH  20  21
ENDBRANCH  19  20
ENDBRANCH  18  19
ENDBRANCH  16  17
ENDBRANCH  15  16
ENDBRANCH  13  14
ENDBRANCH  12  13
ENDBRANCH  10  11
ENDBRANCH   9  10
ENDBRANCH   7   8
ENDBRANCH   6   7
ENDBRANCH   5   6
ENDBRANCH   3   5
ENDBRANCH   1   3
TORSDOF 15
ENDMDL
MODEL 17
REMARK VINA RESULT:      -3.9     46.650     48.645
REMARK  15 active torsions:
REMARK  status: ('A' for Active; 'I' for Inactive)
REMARK    1  A    between atoms: O_1  and  C_22 
REMARK    2  A    between atoms: C_3  and  C_4 
REMARK    3  A    between atoms: C_3  and  C_5 
REMARK    4  A    between atoms: C_4  and  C_6 
REMARK    5  A    between atoms: C_5  and  C_7 
REMARK    6  A    between atoms: C_9  and  C_10 
REMARK    7  A    between atoms: C_9  and  C_13 
REMARK    8  A    between atoms: C_10  and  C_14 
REMARK    9  A    between atoms: C_11  and  C_12 
REMARK   10  A    between atoms: C_12  and  C_16 
REMARK   11  A    between atoms: C_13  and  C_22 
REMARK   12  A    between atoms: C_15  and  C_17 
REMARK   13  A    between atoms: C_15  and  C_20 
REMARK   14  A    between atoms: C_18  and  C_19 
REMARK   15  A    between atoms: C_18  and  C_21 
ROOT
HETATM    1  O   UNL     1     -12.600   7.364 -17.798  1.00  0.00    -0.776 OA
HETATM    2  H   UNL     1     -11.655   7.169 -17.873  1.00  0.00     0.167 HD
ENDROOT
BRANCH   1   3
HETATM    3  C   UNL     1     -13.041   8.472 -17.166  1.00  0.00     0.139 C 
HETATM    4  O   UNL     1     -12.608   8.759 -16.060  1.00  0.00    -0.650 OA
BRANCH   3   5
HETATM    5  C   UNL     1     -14.076   9.344 -17.822  1.00  0.00     0.110 C 
BRANCH   5   6
HETATM    6  C   UNL     1     -13.645   9.812 -19.219  1.00  0.00     0.014 C 
BRANCH   6   7
HETATM    7  C   UNL     1     -14.029  11.270 -19.499  1.00  0.00     0.027 C 
BRANCH   7   8
HETATM    8  C   UNL     1     -15.018  11.326 -20.636  1.00  0.00    -0.030 C 
HETATM    9  C   UNL     1     -16.326  11.623 -20.514  1.00  0.00    -0.027 C 
BRANCH   9  10
HETATM   10  C   UNL     1     -17.026  11.975 -19.226  1.00  0.00     0.053 C 
BRANCH  10  11
HETATM   11  C   UNL     1     -17.529  10.735 -18.519  1.00  0.00    -0.027 C 
HETATM   12  C   UNL     1     -17.666  10.547 -17.191  1.00  0.00    -0.027 C 
BRANCH  12  13
HETATM   13  C   UNL     1     -17.366  11.541 -16.097  1.00  0.00     0.053 C 
BRANCH  13  14
HETATM   14  C   UNL     1     -15.885  11.547 -15.797  1.00  0.00    -0.027 C 
HETATM   15  C   UNL     1     -15.346  11.471 -14.563  1.00  0.00    -0.027 C 
BRANCH  15  16
HETATM   16  C   UNL     1     -16.142  11.384 -13.287  1.00  0.00     0.053 C 
BRANCH  16  17
HETATM   17  C   UNL     1     -15.646  10.269 -12.401  1.00  0.00    -0.027 C 
HETATM   18  C   UNL     1     -15.451  10.395 -11.077  1.00  0.00    -0.030 C 
BRANCH  18  19
HETATM   19  C   UNL     1     -15.686  11.659 -10.289  1.00  0.00     0.027 C 
BRANCH  19  20
HETATM   20  C   UNL     1     -16.273  11.309  -8.918  1.00  0.00     0.004 C 
BRANCH  20  21
HETATM   21  C   UNL     1     -17.648  11.958  -8.721  1.00  0.00    -0.000 C 
BRANCH  21  22
HETATM   22  C   UNL     1     -18.230  12.422 -10.062  1.00  0.00    -0.005 C 
HETATM   23  C   UNL     1     -19.258  11.426 -10.590  1.00  0.00     0.005 C 
ENDBRANCH  21  22
ENDBRANCH  20  21
ENDBRANCH  19  20
ENDBRANCH  18  19
ENDBRANCH  16  17
ENDBRANCH  15  16
ENDBRANCH  13  14
ENDBRANCH  12  13
ENDBRANCH  10  11
ENDBRANCH   9  10
ENDBRANCH   7   8
ENDBRANCH   6   7
ENDBRANCH   5   6
ENDBRANCH   3   5
ENDBRANCH   1   3
TORSDOF 15
ENDMDL
MODEL 18
REMARK VINA RESULT:      -3.9     48.060     49.611
REMARK  15 active torsions:
REMARK  status: ('A' for Active; 'I' for Inactive)
REMARK    1  A    between atoms: O_1  and  C_22 
REMARK    2  A    between atoms: C_3  and  C_4 
REMARK    3  A    between atoms: C_3  and  C_5 
REMARK    4  A    between atoms: C_4  and  C_6 
REMARK    5  A    between atoms: C_5  and  C_7 
REMARK    6  A    between atoms: C_9  and  C_10 
REMARK    7  A    between atoms: C_9  and  C_13 
REMARK    8  A    between atoms: C_10  and  C_14 
REMARK    9  A    between atoms: C_11  and  C_12 
REMARK   10  A    between atoms: C_12  and  C_16 
REMARK   11  A    between atoms: C_13  and  C_22 
REMARK   12  A    between atoms: C_15  and  C_17 
REMARK   13  A    between atoms: C_15  and  C_20 
REMARK   14  A    between atoms: C_18  and  C_19 
REMARK   15  A    between atoms: C_18  and  C_21 
ROOT
HETATM    1  O   UNL     1     -19.755  10.479 -12.587  1.00  0.00    -0.776 OA
HETATM    2  H   UNL     1     -20.100  11.375 -12.706  1.00  0.00     0.167 HD
ENDROOT
BRANCH   1   3
HETATM    3  C   UNL     1     -18.443  10.205 -12.748  1.00  0.00     0.139 C 
HETATM    4  O   UNL     1     -17.879   9.439 -11.980  1.00  0.00    -0.650 OA
BRANCH   3   5
HETATM    5  C   UNL     1     -17.675  10.853 -13.866  1.00  0.00     0.110 C 
BRANCH   5   6
HETATM    6  C   UNL     1     -18.190  12.263 -14.188  1.00  0.00     0.014 C 
BRANCH   6   7
HETATM    7  C   UNL     1     -18.622  12.416 -15.652  1.00  0.00     0.027 C 
BRANCH   7   8
HETATM    8  C   UNL     1     -19.901  13.211 -15.724  1.00  0.00    -0.030 C 
HETATM    9  C   UNL     1     -20.723  13.264 -16.790  1.00  0.00    -0.027 C 
BRANCH   9  10
HETATM   10  C   UNL     1     -20.523  12.521 -18.086  1.00  0.00     0.053 C 
BRANCH  10  11
HETATM   11  C   UNL     1     -20.101  13.458 -19.196  1.00  0.00    -0.027 C 
HETATM   12  C   UNL     1     -19.135  13.258 -20.116  1.00  0.00    -0.027 C 
BRANCH  12  13
HETATM   13  C   UNL     1     -18.261  12.039 -20.264  1.00  0.00     0.053 C 
BRANCH  13  14
HETATM   14  C   UNL     1     -17.300  11.948 -19.102  1.00  0.00    -0.027 C 
HETATM   15  C   UNL     1     -15.982  11.680 -19.208  1.00  0.00    -0.027 C 
BRANCH  15  16
HETATM   16  C   UNL     1     -15.267  11.413 -20.507  1.00  0.00     0.053 C 
BRANCH  16  17
HETATM   17  C   UNL     1     -13.782  11.645 -20.378  1.00  0.00    -0.027 C 
HETATM   18  C   UNL     1     -12.916  10.722 -19.924  1.00  0.00    -0.030 C 
BRANCH  18  19
HETATM   19  C   UNL     1     -13.296   9.335 -19.470  1.00  0.00     0.027 C 
BRANCH  19  20
HETATM   20  C   UNL     1     -13.142   9.231 -17.949  1.00  0.00     0.004 C 
BRANCH  20  21
HETATM   21  C   UNL     1     -13.087  10.619 -17.301  1.00  0.00    -0.000 C 
BRANCH  21  22
HETATM   22  C   UNL     1     -13.560  10.560 -15.844  1.00  0.00    -0.005 C 
HETATM   23  C   UNL     1     -14.581  11.655 -15.551  1.00  0.00     0.005 C 
ENDBRANCH  21  22
ENDBRANCH  20  21
ENDBRANCH  19  20
ENDBRANCH  18  19
ENDBRANCH  16  17
ENDBRANCH  15  16
ENDBRANCH  13  14
ENDBRANCH  12  13
ENDBRANCH  10  11
ENDBRANCH   9  10
ENDBRANCH   7   8
ENDBRANCH   6   7
ENDBRANCH   5   6
ENDBRANCH   3   5
ENDBRANCH   1   3
TORSDOF 15
ENDMDL
MODEL 19
REMARK VINA RESULT:      -3.9      2.953      5.207
REMARK  15 active torsions:
REMARK  status: ('A' for Active; 'I' for Inactive)
REMARK    1  A    between atoms: O_1  and  C_22 
REMARK    2  A    between atoms: C_3  and  C_4 
REMARK    3  A    between atoms: C_3  and  C_5 
REMARK    4  A    between atoms: C_4  and  C_6 
REMARK    5  A    between atoms: C_5  and  C_7 
REMARK    6  A    between atoms: C_9  and  C_10 
REMARK    7  A    between atoms: C_9  and  C_13 
REMARK    8  A    between atoms: C_10  and  C_14 
REMARK    9  A    between atoms: C_11  and  C_12 
REMARK   10  A    between atoms: C_12  and  C_16 
REMARK   11  A    between atoms: C_13  and  C_22 
REMARK   12  A    between atoms: C_15  and  C_17 
REMARK   13  A    between atoms: C_15  and  C_20 
REMARK   14  A    between atoms: C_18  and  C_19 
REMARK   15  A    between atoms: C_18  and  C_21 
ROOT
HETATM    1  O   UNL     1      28.252   9.871 -10.118  1.00  0.00    -0.776 OA
HETATM    2  H   UNL     1      27.386   9.815 -10.546  1.00  0.00     0.167 HD
ENDROOT
BRANCH   1   3
HETATM    3  C   UNL     1      28.734  11.044  -9.655  1.00  0.00     0.139 C 
HETATM    4  O   UNL     1      28.612  12.061 -10.322  1.00  0.00    -0.650 OA
BRANCH   3   5
HETATM    5  C   UNL     1      29.430  11.093  -8.323  1.00  0.00     0.110 C 
BRANCH   5   6
HETATM    6  C   UNL     1      30.591  12.098  -8.308  1.00  0.00     0.014 C 
BRANCH   6   7
HETATM    7  C   UNL     1      31.233  12.239  -6.922  1.00  0.00     0.027 C 
BRANCH   7   8
HETATM    8  C   UNL     1      31.295  10.890  -6.251  1.00  0.00    -0.030 C 
HETATM    9  C   UNL     1      32.352  10.056  -6.279  1.00  0.00    -0.027 C 
BRANCH   9  10
HETATM   10  C   UNL     1      33.666  10.334  -6.964  1.00  0.00     0.053 C 
BRANCH  10  11
HETATM   11  C   UNL     1      34.832   9.864  -6.124  1.00  0.00    -0.027 C 
HETATM   12  C   UNL     1      35.164   8.592  -5.818  1.00  0.00    -0.027 C 
BRANCH  12  13
HETATM   13  C   UNL     1      34.457   7.338  -6.264  1.00  0.00     0.053 C 
BRANCH  13  14
HETATM   14  C   UNL     1      33.666   6.755  -5.117  1.00  0.00    -0.027 C 
HETATM   15  C   UNL     1      32.844   5.690  -5.206  1.00  0.00    -0.027 C 
BRANCH  15  16
HETATM   16  C   UNL     1      32.574   4.924  -6.475  1.00  0.00     0.053 C 
BRANCH  16  17
HETATM   17  C   UNL     1      31.134   5.053  -6.903  1.00  0.00    -0.027 C 
HETATM   18  C   UNL     1      30.674   6.033  -7.700  1.00  0.00    -0.030 C 
BRANCH  18  19
HETATM   19  C   UNL     1      31.517   7.146  -8.270  1.00  0.00     0.027 C 
BRANCH  19  20
HETATM   20  C   UNL     1      30.986   7.538  -9.652  1.00  0.00     0.004 C 
BRANCH  20  21
HETATM   21  C   UNL     1      31.875   6.978 -10.768  1.00  0.00    -0.000 C 
BRANCH  21  22
HETATM   22  C   UNL     1      31.591   5.489 -10.998  1.00  0.00    -0.005 C 
HETATM   23  C   UNL     1      30.207   5.279 -11.604  1.00  0.00     0.005 C 
ENDBRANCH  21  22
ENDBRANCH  20  21
ENDBRANCH  19  20
ENDBRANCH  18  19
ENDBRANCH  16  17
ENDBRANCH  15  16
ENDBRANCH  13  14
ENDBRANCH  12  13
ENDBRANCH  10  11
ENDBRANCH   9  10
ENDBRANCH   7   8
ENDBRANCH   6   7
ENDBRANCH   5   6
ENDBRANCH   3   5
ENDBRANCH   1   3
TORSDOF 15
ENDMDL
MODEL 20
REMARK VINA RESULT:      -3.9      4.980      8.194
REMARK  15 active torsions:
REMARK  status: ('A' for Active; 'I' for Inactive)
REMARK    1  A    between atoms: O_1  and  C_22 
REMARK    2  A    between atoms: C_3  and  C_4 
REMARK    3  A    between atoms: C_3  and  C_5 
REMARK    4  A    between atoms: C_4  and  C_6 
REMARK    5  A    between atoms: C_5  and  C_7 
REMARK    6  A    between atoms: C_9  and  C_10 
REMARK    7  A    between atoms: C_9  and  C_13 
REMARK    8  A    between atoms: C_10  and  C_14 
REMARK    9  A    between atoms: C_11  and  C_12 
REMARK   10  A    between atoms: C_12  and  C_16 
REMARK   11  A    between atoms: C_13  and  C_22 
REMARK   12  A    between atoms: C_15  and  C_17 
REMARK   13  A    between atoms: C_15  and  C_20 
REMARK   14  A    between atoms: C_18  and  C_19 
REMARK   15  A    between atoms: C_18  and  C_21 
ROOT
HETATM    1  O   UNL     1      30.058   9.372 -17.632  1.00  0.00    -0.776 OA
HETATM    2  H   UNL     1      30.761   8.807 -17.983  1.00  0.00     0.167 HD
ENDROOT
BRANCH   1   3
HETATM    3  C   UNL     1      29.649  10.477 -18.292  1.00  0.00     0.139 C 
HETATM    4  O   UNL     1      28.483  10.585 -18.642  1.00  0.00    -0.650 OA
BRANCH   3   5
HETATM    5  C   UNL     1      30.636  11.568 -18.606  1.00  0.00     0.110 C 
BRANCH   5   6
HETATM    6  C   UNL     1      31.220  12.209 -17.339  1.00  0.00     0.014 C 
BRANCH   6   7
HETATM    7  C   UNL     1      32.738  12.416 -17.427  1.00  0.00     0.027 C 
BRANCH   7   8
HETATM    8  C   UNL     1      33.389  11.942 -16.153  1.00  0.00    -0.030 C 
HETATM    9  C   UNL     1      33.637  10.656 -15.839  1.00  0.00    -0.027 C 
BRANCH   9  10
HETATM   10  C   UNL     1      33.329   9.468 -16.715  1.00  0.00     0.053 C 
BRANCH  10  11
HETATM   11  C   UNL     1      34.374   9.298 -17.796  1.00  0.00    -0.027 C 
HETATM   12  C   UNL     1      34.253   8.617 -18.954  1.00  0.00    -0.027 C 
BRANCH  12  13
HETATM   13  C   UNL     1      33.035   7.882 -19.451  1.00  0.00     0.053 C 
BRANCH  13  14
HETATM   14  C   UNL     1      33.210   6.395 -19.248  1.00  0.00    -0.027 C 
HETATM   15  C   UNL     1      32.252   5.557 -18.801  1.00  0.00    -0.027 C 
BRANCH  15  16
HETATM   16  C   UNL     1      30.858   5.981 -18.419  1.00  0.00     0.053 C 
BRANCH  16  17
HETATM   17  C   UNL     1      30.351   5.202 -17.231  1.00  0.00    -0.027 C 
HETATM   18  C   UNL     1      30.548   5.570 -15.953  1.00  0.00    -0.030 C 
BRANCH  18  19
HETATM   19  C   UNL     1      31.310   6.797 -15.519  1.00  0.00     0.027 C 
BRANCH  19  20
HETATM   20  C   UNL     1      32.190   6.457 -14.312  1.00  0.00     0.004 C 
BRANCH  20  21
HETATM   21  C   UNL     1      31.487   5.472 -13.373  1.00  0.00    -0.000 C 
BRANCH  21  22
HETATM   22  C   UNL     1      30.768   6.215 -12.241  1.00  0.00    -0.005 C 
HETATM   23  C   UNL     1      30.372   5.260 -11.119  1.00  0.00     0.005 C 
ENDBRANCH  21  22
ENDBRANCH  20  21
ENDBRANCH  19  20
ENDBRANCH  18  19
ENDBRANCH  16  17
ENDBRANCH  15  16
ENDBRANCH  13  14
ENDBRANCH  12  13
ENDBRANCH  10  11
ENDBRANCH   9  10
ENDBRANCH   7   8
ENDBRANCH   6   7
ENDBRANCH   5   6
ENDBRANCH   3   5
ENDBRANCH   1   3
TORSDOF 15
ENDMDL
