MODEL 1
REMARK VINA RESULT:      -8.1      0.000      0.000
REMARK  2 active torsions:
REMARK  status: ('A' for Active; 'I' for Inactive)
REMARK    1  A    between atoms: N_3  and  C_15 
REMARK    2  A    between atoms: C_5  and  C_7 
ROOT
HETATM    1  S   UNL     1      31.012 -20.522 -10.517  1.00  0.00    -0.069 SA
HETATM    2  N   UNL     1      30.340 -18.080 -10.574  1.00  0.00    -0.344 N 
HETATM    3  C   UNL     1      30.397 -18.522 -11.871  1.00  0.00     0.052 A 
HETATM    4  C   UNL     1      30.631 -19.090  -9.685  1.00  0.00     0.087 A 
HETATM    5  C   UNL     1      30.754 -19.853 -12.022  1.00  0.00     0.034 A 
HETATM    6  C   UNL     1      30.144 -17.747 -13.017  1.00  0.00     0.031 A 
HETATM    7  C   UNL     1      30.869 -20.466 -13.266  1.00  0.00     0.028 A 
HETATM    8  C   UNL     1      30.063 -16.670 -10.261  1.00  0.00     0.157 C 
HETATM    9  C   UNL     1      30.612 -19.699 -14.417  1.00  0.00    -0.061 A 
HETATM   10  C   UNL     1      30.251 -18.341 -14.285  1.00  0.00     0.009 A 
HETATM   11  C   UNL     1      30.720 -20.308 -15.783  1.00  0.00     0.048 C 
ENDROOT
BRANCH   4  12
HETATM   12  C   UNL     1      30.609 -19.046  -8.187  1.00  0.00    -0.002 A 
HETATM   13  C   UNL     1      30.266 -17.893  -7.460  1.00  0.00     0.016 A 
HETATM   14  C   UNL     1      30.237 -17.903  -6.062  1.00  0.00     0.030 A 
HETATM   15  C   UNL     1      30.540 -19.071  -5.332  1.00  0.00     0.029 A 
HETATM   16  C   UNL     1      30.861 -20.232  -6.066  1.00  0.00     0.030 A 
HETATM   17  C   UNL     1      30.885 -20.220  -7.463  1.00  0.00     0.016 A 
BRANCH  15  18
HETATM   18  N   UNL     1      30.511 -19.082  -3.888  1.00  0.00    -0.390 N 
HETATM   19  C   UNL     1      30.229 -17.863  -3.142  1.00  0.00     0.149 C 
HETATM   20  C   UNL     1      30.765 -20.312  -3.150  1.00  0.00     0.149 C 
ENDBRANCH  15  18
ENDBRANCH   4  12
TORSDOF 2
ENDMDL
MODEL 2
REMARK VINA RESULT:      -8.0      2.431      4.699
REMARK  2 active torsions:
REMARK  status: ('A' for Active; 'I' for Inactive)
REMARK    1  A    between atoms: N_3  and  C_15 
REMARK    2  A    between atoms: C_5  and  C_7 
ROOT
HETATM    1  S   UNL     1      31.031 -20.571 -15.071  1.00  0.00    -0.069 SA
HETATM    2  N   UNL     1      30.363 -18.127 -15.044  1.00  0.00    -0.344 N 
HETATM    3  C   UNL     1      30.429 -18.522 -16.356  1.00  0.00     0.052 A 
HETATM    4  C   UNL     1      30.647 -19.170 -14.190  1.00  0.00     0.087 A 
HETATM    5  C   UNL     1      30.786 -19.847 -16.553  1.00  0.00     0.034 A 
HETATM    6  C   UNL     1      30.187 -17.706 -17.475  1.00  0.00     0.031 A 
HETATM    7  C   UNL     1      30.910 -20.415 -17.818  1.00  0.00     0.028 A 
HETATM    8  C   UNL     1      30.087 -16.730 -14.682  1.00  0.00     0.157 C 
HETATM    9  C   UNL     1      30.662 -19.606 -18.942  1.00  0.00    -0.061 A 
HETATM   10  C   UNL     1      30.302 -18.253 -18.762  1.00  0.00     0.009 A 
HETATM   11  C   UNL     1      30.780 -20.165 -20.328  1.00  0.00     0.048 C 
ENDROOT
BRANCH   4  12
HETATM   12  C   UNL     1      30.614 -19.181 -12.692  1.00  0.00    -0.002 A 
HETATM   13  C   UNL     1      30.926 -20.320 -11.928  1.00  0.00     0.016 A 
HETATM   14  C   UNL     1      30.904 -20.280 -10.531  1.00  0.00     0.030 A 
HETATM   15  C   UNL     1      30.578 -19.095  -9.837  1.00  0.00     0.029 A 
HETATM   16  C   UNL     1      30.287 -17.949 -10.608  1.00  0.00     0.030 A 
HETATM   17  C   UNL     1      30.314 -17.992 -12.004  1.00  0.00     0.016 A 
BRANCH  15  18
HETATM   18  N   UNL     1      30.554 -19.053  -8.394  1.00  0.00    -0.390 N 
HETATM   19  C   UNL     1      30.849 -20.247  -7.612  1.00  0.00     0.149 C 
HETATM   20  C   UNL     1      30.233 -17.818  -7.693  1.00  0.00     0.149 C 
ENDBRANCH  15  18
ENDBRANCH   4  12
TORSDOF 2
ENDMDL
MODEL 3
REMARK VINA RESULT:      -8.0      1.714      7.907
REMARK  2 active torsions:
REMARK  status: ('A' for Active; 'I' for Inactive)
REMARK    1  A    between atoms: N_3  and  C_15 
REMARK    2  A    between atoms: C_5  and  C_7 
ROOT
HETATM    1  S   UNL     1      30.832 -20.476 -10.063  1.00  0.00    -0.069 SA
HETATM    2  N   UNL     1      30.268 -18.006 -10.006  1.00  0.00    -0.344 N 
HETATM    3  C   UNL     1      30.429 -18.422  -8.709  1.00  0.00     0.052 A 
HETATM    4  C   UNL     1      30.488 -19.035 -10.895  1.00  0.00     0.087 A 
HETATM    5  C   UNL     1      30.745 -19.763  -8.558  1.00  0.00     0.034 A 
HETATM    6  C   UNL     1      30.287 -17.619  -7.564  1.00  0.00     0.031 A 
HETATM    7  C   UNL     1      30.936 -20.357  -7.313  1.00  0.00     0.028 A 
HETATM    8  C   UNL     1      29.844 -16.635 -10.319  1.00  0.00     0.157 C 
HETATM    9  C   UNL     1      30.801 -19.559  -6.162  1.00  0.00    -0.061 A 
HETATM   10  C   UNL     1      30.476 -18.192  -6.296  1.00  0.00     0.009 A 
HETATM   11  C   UNL     1      30.997 -20.145  -4.797  1.00  0.00     0.048 C 
ENDROOT
BRANCH   4  12
HETATM   12  C   UNL     1      30.484 -18.988 -12.392  1.00  0.00    -0.002 A 
HETATM   13  C   UNL     1      30.497 -17.784 -13.120  1.00  0.00     0.016 A 
HETATM   14  C   UNL     1      30.515 -17.786 -14.518  1.00  0.00     0.030 A 
HETATM   15  C   UNL     1      30.532 -18.993 -15.249  1.00  0.00     0.029 A 
HETATM   16  C   UNL     1      30.542 -20.198 -14.514  1.00  0.00     0.030 A 
HETATM   17  C   UNL     1      30.528 -20.192 -13.117  1.00  0.00     0.016 A 
BRANCH  15  18
HETATM   18  N   UNL     1      30.550 -18.997 -16.693  1.00  0.00    -0.390 N 
HETATM   19  C   UNL     1      30.880 -20.211 -17.428  1.00  0.00     0.149 C 
HETATM   20  C   UNL     1      30.240 -17.787 -17.442  1.00  0.00     0.149 C 
ENDBRANCH  15  18
ENDBRANCH   4  12
TORSDOF 2
ENDMDL
MODEL 4
REMARK VINA RESULT:      -7.9      1.756      8.017
REMARK  2 active torsions:
REMARK  status: ('A' for Active; 'I' for Inactive)
REMARK    1  A    between atoms: N_3  and  C_15 
REMARK    2  A    between atoms: C_5  and  C_7 
ROOT
HETATM    1  S   UNL     1      30.833 -20.533 -10.146  1.00  0.00    -0.069 SA
HETATM    2  N   UNL     1      30.330 -18.050 -10.187  1.00  0.00    -0.344 N 
HETATM    3  C   UNL     1      30.452 -18.425  -8.873  1.00  0.00     0.052 A 
HETATM    4  C   UNL     1      30.544 -19.114 -11.035  1.00  0.00     0.087 A 
HETATM    5  C   UNL     1      30.730 -19.767  -8.669  1.00  0.00     0.034 A 
HETATM    6  C   UNL     1      30.304 -17.579  -7.759  1.00  0.00     0.031 A 
HETATM    7  C   UNL     1      30.878 -20.322  -7.401  1.00  0.00     0.028 A 
HETATM    8  C   UNL     1      29.948 -16.680 -10.556  1.00  0.00     0.157 C 
HETATM    9  C   UNL     1      30.738 -19.481  -6.281  1.00  0.00    -0.061 A 
HETATM   10  C   UNL     1      30.450 -18.112  -6.468  1.00  0.00     0.009 A 
HETATM   11  C   UNL     1      30.888 -20.025  -4.892  1.00  0.00     0.048 C 
ENDROOT
BRANCH   4  12
HETATM   12  C   UNL     1      30.575 -19.118 -12.533  1.00  0.00    -0.002 A 
HETATM   13  C   UNL     1      30.938 -20.248 -13.288  1.00  0.00     0.016 A 
HETATM   14  C   UNL     1      30.932 -20.215 -14.685  1.00  0.00     0.030 A 
HETATM   15  C   UNL     1      30.552 -19.052 -15.389  1.00  0.00     0.029 A 
HETATM   16  C   UNL     1      30.167 -17.928 -14.627  1.00  0.00     0.030 A 
HETATM   17  C   UNL     1      30.170 -17.966 -13.231  1.00  0.00     0.016 A 
BRANCH  15  18
HETATM   18  N   UNL     1      30.546 -19.016 -16.832  1.00  0.00    -0.390 N 
HETATM   19  C   UNL     1      30.834 -20.217 -17.605  1.00  0.00     0.149 C 
HETATM   20  C   UNL     1      30.254 -17.779 -17.543  1.00  0.00     0.149 C 
ENDBRANCH  15  18
ENDBRANCH   4  12
TORSDOF 2
ENDMDL
MODEL 5
REMARK VINA RESULT:      -7.8      1.528      2.648
REMARK  2 active torsions:
REMARK  status: ('A' for Active; 'I' for Inactive)
REMARK    1  A    between atoms: N_3  and  C_15 
REMARK    2  A    between atoms: C_5  and  C_7 
ROOT
HETATM    1  S   UNL     1      30.998 -20.311 -13.117  1.00  0.00    -0.069 SA
HETATM    2  N   UNL     1      30.372 -17.858 -13.024  1.00  0.00    -0.344 N 
HETATM    3  C   UNL     1      30.406 -18.225 -14.345  1.00  0.00     0.052 A 
HETATM    4  C   UNL     1      30.654 -18.923 -12.199  1.00  0.00     0.087 A 
HETATM    5  C   UNL     1      30.736 -19.550 -14.578  1.00  0.00     0.034 A 
HETATM    6  C   UNL     1      30.155 -17.380 -15.440  1.00  0.00     0.031 A 
HETATM    7  C   UNL     1      30.825 -20.092 -15.857  1.00  0.00     0.028 A 
HETATM    8  C   UNL     1      30.126 -16.464 -12.626  1.00  0.00     0.157 C 
HETATM    9  C   UNL     1      30.570 -19.254 -16.958  1.00  0.00    -0.061 A 
HETATM   10  C   UNL     1      30.236 -17.900 -16.742  1.00  0.00     0.009 A 
HETATM   11  C   UNL     1      30.651 -19.784 -18.358  1.00  0.00     0.048 C 
ENDROOT
BRANCH   4  12
HETATM   12  C   UNL     1      30.650 -18.967 -10.701  1.00  0.00    -0.002 A 
HETATM   13  C   UNL     1      30.256 -17.878  -9.904  1.00  0.00     0.016 A 
HETATM   14  C   UNL     1      30.246 -17.970  -8.509  1.00  0.00     0.030 A 
HETATM   15  C   UNL     1      30.621 -19.160  -7.851  1.00  0.00     0.029 A 
HETATM   16  C   UNL     1      30.995 -20.258  -8.655  1.00  0.00     0.030 A 
HETATM   17  C   UNL     1      30.999 -20.164 -10.049  1.00  0.00     0.016 A 
BRANCH  15  18
HETATM   18  N   UNL     1      30.613 -19.255  -6.410  1.00  0.00    -0.390 N 
HETATM   19  C   UNL     1      30.912 -20.519  -5.749  1.00  0.00     0.149 C 
HETATM   20  C   UNL     1      30.303 -18.092  -5.591  1.00  0.00     0.149 C 
ENDBRANCH  15  18
ENDBRANCH   4  12
TORSDOF 2
ENDMDL
MODEL 6
REMARK VINA RESULT:      -7.8      3.368      9.472
REMARK  2 active torsions:
REMARK  status: ('A' for Active; 'I' for Inactive)
REMARK    1  A    between atoms: N_3  and  C_15 
REMARK    2  A    between atoms: C_5  and  C_7 
ROOT
HETATM    1  S   UNL     1      30.893 -20.507 -13.734  1.00  0.00    -0.069 SA
HETATM    2  N   UNL     1      30.253 -18.056 -13.699  1.00  0.00    -0.344 N 
HETATM    3  C   UNL     1      30.415 -18.458 -12.397  1.00  0.00     0.052 A 
HETATM    4  C   UNL     1      30.513 -19.082 -14.579  1.00  0.00     0.087 A 
HETATM    5  C   UNL     1      30.771 -19.788 -12.235  1.00  0.00     0.034 A 
HETATM    6  C   UNL     1      30.238 -17.653 -11.259  1.00  0.00     0.031 A 
HETATM    7  C   UNL     1      30.968 -20.369 -10.985  1.00  0.00     0.028 A 
HETATM    8  C   UNL     1      29.790 -16.699 -14.024  1.00  0.00     0.157 C 
HETATM    9  C   UNL     1      30.799 -19.568  -9.841  1.00  0.00    -0.061 A 
HETATM   10  C   UNL     1      30.433 -18.212  -9.985  1.00  0.00     0.009 A 
HETATM   11  C   UNL     1      30.999 -20.140  -8.470  1.00  0.00     0.048 C 
ENDROOT
BRANCH   4  12
HETATM   12  C   UNL     1      30.521 -19.044 -16.077  1.00  0.00    -0.002 A 
HETATM   13  C   UNL     1      30.290 -17.869 -16.814  1.00  0.00     0.016 A 
HETATM   14  C   UNL     1      30.329 -17.874 -18.212  1.00  0.00     0.030 A 
HETATM   15  C   UNL     1      30.612 -19.053 -18.932  1.00  0.00     0.029 A 
HETATM   16  C   UNL     1      30.866 -20.225 -18.188  1.00  0.00     0.030 A 
HETATM   17  C   UNL     1      30.830 -20.215 -16.791  1.00  0.00     0.016 A 
BRANCH  15  18
HETATM   18  N   UNL     1      30.652 -19.060 -20.375  1.00  0.00    -0.390 N 
HETATM   19  C   UNL     1      30.368 -17.847 -21.131  1.00  0.00     0.149 C 
HETATM   20  C   UNL     1      30.975 -20.279 -21.104  1.00  0.00     0.149 C 
ENDBRANCH  15  18
ENDBRANCH   4  12
TORSDOF 2
ENDMDL
MODEL 7
REMARK VINA RESULT:      -7.5      1.689      8.027
REMARK  2 active torsions:
REMARK  status: ('A' for Active; 'I' for Inactive)
REMARK    1  A    between atoms: N_3  and  C_15 
REMARK    2  A    between atoms: C_5  and  C_7 
ROOT
HETATM    1  S   UNL     1      30.815 -20.501  -5.729  1.00  0.00    -0.069 SA
HETATM    2  N   UNL     1      30.287 -18.023  -5.703  1.00  0.00    -0.344 N 
HETATM    3  C   UNL     1      30.430 -18.428  -4.400  1.00  0.00     0.052 A 
HETATM    4  C   UNL     1      30.501 -19.063  -6.579  1.00  0.00     0.087 A 
HETATM    5  C   UNL     1      30.724 -19.772  -4.233  1.00  0.00     0.034 A 
HETATM    6  C   UNL     1      30.288 -17.612  -3.264  1.00  0.00     0.031 A 
HETATM    7  C   UNL     1      30.894 -20.357  -2.981  1.00  0.00     0.028 A 
HETATM    8  C   UNL     1      29.886 -16.648  -6.033  1.00  0.00     0.157 C 
HETATM    9  C   UNL     1      30.760 -19.545  -1.839  1.00  0.00    -0.061 A 
HETATM   10  C   UNL     1      30.456 -18.175  -1.989  1.00  0.00     0.009 A 
HETATM   11  C   UNL     1      30.933 -20.121  -0.466  1.00  0.00     0.048 C 
ENDROOT
BRANCH   4  12
HETATM   12  C   UNL     1      30.512 -19.030  -8.077  1.00  0.00    -0.002 A 
HETATM   13  C   UNL     1      30.271 -17.860  -8.819  1.00  0.00     0.016 A 
HETATM   14  C   UNL     1      30.314 -17.870 -10.216  1.00  0.00     0.030 A 
HETATM   15  C   UNL     1      30.609 -19.049 -10.932  1.00  0.00     0.029 A 
HETATM   16  C   UNL     1      30.872 -20.216 -10.183  1.00  0.00     0.030 A 
HETATM   17  C   UNL     1      30.833 -20.201  -8.786  1.00  0.00     0.016 A 
BRANCH  15  18
HETATM   18  N   UNL     1      30.652 -19.060 -12.375  1.00  0.00    -0.390 N 
HETATM   19  C   UNL     1      31.021 -20.271 -13.097  1.00  0.00     0.149 C 
HETATM   20  C   UNL     1      30.330 -17.862 -13.137  1.00  0.00     0.149 C 
ENDBRANCH  15  18
ENDBRANCH   4  12
TORSDOF 2
ENDMDL
MODEL 8
REMARK VINA RESULT:      -7.5      2.043      8.068
REMARK  2 active torsions:
REMARK  status: ('A' for Active; 'I' for Inactive)
REMARK    1  A    between atoms: N_3  and  C_15 
REMARK    2  A    between atoms: C_5  and  C_7 
ROOT
HETATM    1  S   UNL     1      30.219 -16.983  -9.506  1.00  0.00    -0.069 SA
HETATM    2  N   UNL     1      30.868 -19.395  -9.931  1.00  0.00    -0.344 N 
HETATM    3  C   UNL     1      30.733 -19.238  -8.575  1.00  0.00     0.052 A 
HETATM    4  C   UNL     1      30.586 -18.228 -10.603  1.00  0.00     0.087 A 
HETATM    5  C   UNL     1      30.377 -17.962  -8.165  1.00  0.00     0.034 A 
HETATM    6  C   UNL     1      30.938 -20.235  -7.606  1.00  0.00     0.031 A 
HETATM    7  C   UNL     1      30.205 -17.621  -6.827  1.00  0.00     0.028 A 
HETATM    8  C   UNL     1      31.329 -20.666 -10.508  1.00  0.00     0.157 C 
HETATM    9  C   UNL     1      30.402 -18.615  -5.851  1.00  0.00    -0.061 A 
HETATM   10  C   UNL     1      30.769 -19.919  -6.248  1.00  0.00     0.009 A 
HETATM   11  C   UNL     1      30.229 -18.304  -4.395  1.00  0.00     0.048 C 
ENDROOT
BRANCH   4  12
HETATM   12  C   UNL     1      30.545 -17.992 -12.083  1.00  0.00    -0.002 A 
HETATM   13  C   UNL     1      31.162 -16.889 -12.700  1.00  0.00     0.016 A 
HETATM   14  C   UNL     1      31.117 -16.720 -14.087  1.00  0.00     0.030 A 
HETATM   15  C   UNL     1      30.463 -17.653 -14.918  1.00  0.00     0.029 A 
HETATM   16  C   UNL     1      29.865 -18.771 -14.297  1.00  0.00     0.030 A 
HETATM   17  C   UNL     1      29.915 -18.939 -12.911  1.00  0.00     0.016 A 
BRANCH  15  18
HETATM   18  N   UNL     1      30.416 -17.479 -16.351  1.00  0.00    -0.390 N 
HETATM   19  C   UNL     1      30.541 -18.625 -17.242  1.00  0.00     0.149 C 
HETATM   20  C   UNL     1      30.244 -16.155 -16.932  1.00  0.00     0.149 C 
ENDBRANCH  15  18
ENDBRANCH   4  12
TORSDOF 2
ENDMDL
MODEL 9
REMARK VINA RESULT:      -7.4      1.688      2.607
REMARK  2 active torsions:
REMARK  status: ('A' for Active; 'I' for Inactive)
REMARK    1  A    between atoms: N_3  and  C_15 
REMARK    2  A    between atoms: C_5  and  C_7 
ROOT
HETATM    1  S   UNL     1      30.236 -16.940 -11.650  1.00  0.00    -0.069 SA
HETATM    2  N   UNL     1      30.751 -19.366 -11.127  1.00  0.00    -0.344 N 
HETATM    3  C   UNL     1      30.653 -19.250 -12.491  1.00  0.00     0.052 A 
HETATM    4  C   UNL     1      30.570 -18.151 -10.505  1.00  0.00     0.087 A 
HETATM    5  C   UNL     1      30.372 -17.973 -12.952  1.00  0.00     0.034 A 
HETATM    6  C   UNL     1      30.796 -20.296 -13.418  1.00  0.00     0.031 A 
HETATM    7  C   UNL     1      30.229 -17.675 -14.304  1.00  0.00     0.028 A 
HETATM    8  C   UNL     1      30.955 -20.672 -10.487  1.00  0.00     0.157 C 
HETATM    9  C   UNL     1      30.377 -18.716 -15.239  1.00  0.00    -0.061 A 
HETATM   10  C   UNL     1      30.659 -20.023 -14.788  1.00  0.00     0.009 A 
HETATM   11  C   UNL     1      30.235 -18.452 -16.708  1.00  0.00     0.048 C 
ENDROOT
BRANCH   4  12
HETATM   12  C   UNL     1      30.669 -17.829  -9.045  1.00  0.00    -0.002 A 
HETATM   13  C   UNL     1      30.100 -18.636  -8.043  1.00  0.00     0.016 A 
HETATM   14  C   UNL     1      30.235 -18.311  -6.690  1.00  0.00     0.030 A 
HETATM   15  C   UNL     1      30.954 -17.168  -6.280  1.00  0.00     0.029 A 
HETATM   16  C   UNL     1      31.542 -16.373  -7.287  1.00  0.00     0.030 A 
HETATM   17  C   UNL     1      31.409 -16.704  -8.638  1.00  0.00     0.016 A 
BRANCH  15  18
HETATM   18  N   UNL     1      31.093 -16.830  -4.883  1.00  0.00    -0.390 N 
HETATM   19  C   UNL     1      30.184 -17.389  -3.891  1.00  0.00     0.149 C 
HETATM   20  C   UNL     1      32.143 -15.924  -4.440  1.00  0.00     0.149 C 
ENDBRANCH  15  18
ENDBRANCH   4  12
TORSDOF 2
ENDMDL
MODEL 10
REMARK VINA RESULT:      -7.3     28.132     30.014
REMARK  2 active torsions:
REMARK  status: ('A' for Active; 'I' for Inactive)
REMARK    1  A    between atoms: N_3  and  C_15 
REMARK    2  A    between atoms: C_5  and  C_7 
ROOT
HETATM    1  S   UNL     1      38.845   7.132 -10.284  1.00  0.00    -0.069 SA
HETATM    2  N   UNL     1      40.116   9.318 -10.444  1.00  0.00    -0.344 N 
HETATM    3  C   UNL     1      40.094   8.949  -9.122  1.00  0.00     0.052 A 
HETATM    4  C   UNL     1      39.481   8.388 -11.236  1.00  0.00     0.087 A 
HETATM    5  C   UNL     1      39.430   7.762  -8.856  1.00  0.00     0.034 A 
HETATM    6  C   UNL     1      40.660   9.670  -8.057  1.00  0.00     0.031 A 
HETATM    7  C   UNL     1      39.302   7.241  -7.571  1.00  0.00     0.028 A 
HETATM    8  C   UNL     1      40.704  10.596 -10.868  1.00  0.00     0.157 C 
HETATM    9  C   UNL     1      39.872   7.954  -6.500  1.00  0.00    -0.061 A 
HETATM   10  C   UNL     1      40.548   9.168  -6.751  1.00  0.00     0.009 A 
HETATM   11  C   UNL     1      39.766   7.441  -5.096  1.00  0.00     0.048 C 
ENDROOT
BRANCH   4  12
HETATM   12  C   UNL     1      39.346   8.374 -12.728  1.00  0.00    -0.002 A 
HETATM   13  C   UNL     1      40.286   7.760 -13.576  1.00  0.00     0.016 A 
HETATM   14  C   UNL     1      40.109   7.751 -14.963  1.00  0.00     0.030 A 
HETATM   15  C   UNL     1      38.980   8.347 -15.561  1.00  0.00     0.029 A 
HETATM   16  C   UNL     1      38.028   8.942 -14.705  1.00  0.00     0.030 A 
HETATM   17  C   UNL     1      38.206   8.945 -13.319  1.00  0.00     0.016 A 
BRANCH  15  18
HETATM   18  N   UNL     1      38.797   8.339 -16.993  1.00  0.00    -0.390 N 
HETATM   19  C   UNL     1      39.411   7.304 -17.814  1.00  0.00     0.149 C 
HETATM   20  C   UNL     1      37.996   9.366 -17.645  1.00  0.00     0.149 C 
ENDBRANCH  15  18
ENDBRANCH   4  12
TORSDOF 2
ENDMDL
MODEL 11
REMARK VINA RESULT:      -7.3     28.070     30.134
REMARK  2 active torsions:
REMARK  status: ('A' for Active; 'I' for Inactive)
REMARK    1  A    between atoms: N_3  and  C_15 
REMARK    2  A    between atoms: C_5  and  C_7 
ROOT
HETATM    1  S   UNL     1      39.081   7.112 -11.684  1.00  0.00    -0.069 SA
HETATM    2  N   UNL     1      40.589   9.147 -11.754  1.00  0.00    -0.344 N 
HETATM    3  C   UNL     1      40.393   8.825 -10.435  1.00  0.00     0.052 A 
HETATM    4  C   UNL     1      39.942   8.265 -12.589  1.00  0.00     0.087 A 
HETATM    5  C   UNL     1      39.582   7.722 -10.216  1.00  0.00     0.034 A 
HETATM    6  C   UNL     1      40.922   9.515  -9.332  1.00  0.00     0.031 A 
HETATM    7  C   UNL     1      39.269   7.258  -8.941  1.00  0.00     0.028 A 
HETATM    8  C   UNL     1      41.351  10.343 -12.141  1.00  0.00     0.157 C 
HETATM    9  C   UNL     1      39.800   7.941  -7.831  1.00  0.00    -0.061 A 
HETATM   10  C   UNL     1      40.625   9.068  -8.034  1.00  0.00     0.009 A 
HETATM   11  C   UNL     1      39.498   7.485  -6.436  1.00  0.00     0.048 C 
ENDROOT
BRANCH   4  12
HETATM   12  C   UNL     1      39.958   8.218 -14.087  1.00  0.00    -0.002 A 
HETATM   13  C   UNL     1      40.710   9.110 -14.873  1.00  0.00     0.016 A 
HETATM   14  C   UNL     1      40.714   9.017 -16.267  1.00  0.00     0.030 A 
HETATM   15  C   UNL     1      39.974   8.020 -16.937  1.00  0.00     0.029 A 
HETATM   16  C   UNL     1      39.239   7.113 -16.144  1.00  0.00     0.030 A 
HETATM   17  C   UNL     1      39.241   7.206 -14.750  1.00  0.00     0.016 A 
BRANCH  15  18
HETATM   18  N   UNL     1      39.977   7.923 -18.378  1.00  0.00    -0.390 N 
HETATM   19  C   UNL     1      38.939   7.173 -19.073  1.00  0.00     0.149 C 
HETATM   20  C   UNL     1      41.017   8.572 -19.163  1.00  0.00     0.149 C 
ENDBRANCH  15  18
ENDBRANCH   4  12
TORSDOF 2
ENDMDL
MODEL 12
REMARK VINA RESULT:      -7.3      3.908      6.918
REMARK  2 active torsions:
REMARK  status: ('A' for Active; 'I' for Inactive)
REMARK    1  A    between atoms: N_3  and  C_15 
REMARK    2  A    between atoms: C_5  and  C_7 
ROOT
HETATM    1  S   UNL     1      30.889 -20.129 -17.528  1.00  0.00    -0.069 SA
HETATM    2  N   UNL     1      30.352 -17.662 -17.313  1.00  0.00    -0.344 N 
HETATM    3  C   UNL     1      30.365 -17.967 -18.651  1.00  0.00     0.052 A 
HETATM    4  C   UNL     1      30.601 -18.775 -16.542  1.00  0.00     0.087 A 
HETATM    5  C   UNL     1      30.645 -19.291 -18.948  1.00  0.00     0.034 A 
HETATM    6  C   UNL     1      30.138 -17.062 -19.703  1.00  0.00     0.031 A 
HETATM    7  C   UNL     1      30.708 -19.774 -20.252  1.00  0.00     0.028 A 
HETATM    8  C   UNL     1      30.159 -16.282 -16.848  1.00  0.00     0.157 C 
HETATM    9  C   UNL     1      30.475 -18.876 -21.311  1.00  0.00    -0.061 A 
HETATM   10  C   UNL     1      30.192 -17.523 -21.028  1.00  0.00     0.009 A 
HETATM   11  C   UNL     1      30.528 -19.341 -22.735  1.00  0.00     0.048 C 
ENDROOT
BRANCH   4  12
HETATM   12  C   UNL     1      30.605 -18.890 -15.048  1.00  0.00    -0.002 A 
HETATM   13  C   UNL     1      30.127 -17.875 -14.201  1.00  0.00     0.016 A 
HETATM   14  C   UNL     1      30.128 -18.033 -12.812  1.00  0.00     0.030 A 
HETATM   15  C   UNL     1      30.600 -19.219 -12.210  1.00  0.00     0.029 A 
HETATM   16  C   UNL     1      31.058 -20.244 -13.065  1.00  0.00     0.030 A 
HETATM   17  C   UNL     1      31.051 -20.084 -14.453  1.00  0.00     0.016 A 
BRANCH  15  18
HETATM   18  N   UNL     1      30.603 -19.383 -10.776  1.00  0.00    -0.390 N 
HETATM   19  C   UNL     1      31.035 -20.638 -10.173  1.00  0.00     0.149 C 
HETATM   20  C   UNL     1      30.173 -18.299  -9.903  1.00  0.00     0.149 C 
ENDBRANCH  15  18
ENDBRANCH   4  12
TORSDOF 2
ENDMDL
MODEL 13
REMARK VINA RESULT:      -7.3      1.484      2.514
REMARK  2 active torsions:
REMARK  status: ('A' for Active; 'I' for Inactive)
REMARK    1  A    between atoms: N_3  and  C_15 
REMARK    2  A    between atoms: C_5  and  C_7 
ROOT
HETATM    1  S   UNL     1      31.058 -20.283  -8.160  1.00  0.00    -0.069 SA
HETATM    2  N   UNL     1      30.381 -17.846  -8.019  1.00  0.00    -0.344 N 
HETATM    3  C   UNL     1      30.406 -18.191  -9.346  1.00  0.00     0.052 A 
HETATM    4  C   UNL     1      30.697 -18.918  -7.215  1.00  0.00     0.087 A 
HETATM    5  C   UNL     1      30.761 -19.505  -9.604  1.00  0.00     0.034 A 
HETATM    6  C   UNL     1      30.123 -17.334 -10.425  1.00  0.00     0.031 A 
HETATM    7  C   UNL     1      30.846 -20.024 -10.893  1.00  0.00     0.028 A 
HETATM    8  C   UNL     1      30.111 -16.465  -7.595  1.00  0.00     0.157 C 
HETATM    9  C   UNL     1      30.559 -19.175 -11.977  1.00  0.00    -0.061 A 
HETATM   10  C   UNL     1      30.199 -17.832 -11.735  1.00  0.00     0.009 A 
HETATM   11  C   UNL     1      30.633 -19.680 -13.387  1.00  0.00     0.048 C 
ENDROOT
BRANCH   4  12
HETATM   12  C   UNL     1      30.712 -18.986  -5.718  1.00  0.00    -0.002 A 
HETATM   13  C   UNL     1      31.008 -17.878  -4.904  1.00  0.00     0.016 A 
HETATM   14  C   UNL     1      30.990 -17.980  -3.510  1.00  0.00     0.030 A 
HETATM   15  C   UNL     1      30.665 -19.194  -2.869  1.00  0.00     0.029 A 
HETATM   16  C   UNL     1      30.347 -20.298  -3.689  1.00  0.00     0.030 A 
HETATM   17  C   UNL     1      30.362 -20.191  -5.082  1.00  0.00     0.016 A 
BRANCH  15  18
HETATM   18  N   UNL     1      30.647 -19.302  -1.429  1.00  0.00    -0.390 N 
HETATM   19  C   UNL     1      30.341 -18.141  -0.603  1.00  0.00     0.149 C 
HETATM   20  C   UNL     1      30.935 -20.571  -0.776  1.00  0.00     0.149 C 
ENDBRANCH  15  18
ENDBRANCH   4  12
TORSDOF 2
ENDMDL
MODEL 14
REMARK VINA RESULT:      -7.3     27.886     29.208
REMARK  2 active torsions:
REMARK  status: ('A' for Active; 'I' for Inactive)
REMARK    1  A    between atoms: N_3  and  C_15 
REMARK    2  A    between atoms: C_5  and  C_7 
ROOT
HETATM    1  S   UNL     1      38.853   7.107 -15.098  1.00  0.00    -0.069 SA
HETATM    2  N   UNL     1      40.426   9.086 -14.922  1.00  0.00    -0.344 N 
HETATM    3  C   UNL     1      40.307   8.771 -16.252  1.00  0.00     0.052 A 
HETATM    4  C   UNL     1      39.649   8.263 -14.139  1.00  0.00     0.087 A 
HETATM    5  C   UNL     1      39.473   7.699 -16.529  1.00  0.00     0.034 A 
HETATM    6  C   UNL     1      40.959   9.422 -17.314  1.00  0.00     0.031 A 
HETATM    7  C   UNL     1      39.243   7.236 -17.821  1.00  0.00     0.028 A 
HETATM    8  C   UNL     1      41.345  10.140 -14.469  1.00  0.00     0.157 C 
HETATM    9  C   UNL     1      39.887   7.887 -18.890  1.00  0.00    -0.061 A 
HETATM   10  C   UNL     1      40.743   8.978 -18.628  1.00  0.00     0.009 A 
HETATM   11  C   UNL     1      39.675   7.432 -20.303  1.00  0.00     0.048 C 
ENDROOT
BRANCH   4  12
HETATM   12  C   UNL     1      39.438   8.316 -12.657  1.00  0.00    -0.002 A 
HETATM   13  C   UNL     1      39.207   9.516 -11.959  1.00  0.00     0.016 A 
HETATM   14  C   UNL     1      38.993   9.518 -10.578  1.00  0.00     0.030 A 
HETATM   15  C   UNL     1      38.990   8.318  -9.835  1.00  0.00     0.029 A 
HETATM   16  C   UNL     1      39.199   7.115 -10.543  1.00  0.00     0.030 A 
HETATM   17  C   UNL     1      39.409   7.116 -11.924  1.00  0.00     0.016 A 
BRANCH  15  18
HETATM   18  N   UNL     1      38.770   8.319  -8.408  1.00  0.00    -0.390 N 
HETATM   19  C   UNL     1      37.930   9.335  -7.788  1.00  0.00     0.149 C 
HETATM   20  C   UNL     1      39.384   7.305  -7.562  1.00  0.00     0.149 C 
ENDBRANCH  15  18
ENDBRANCH   4  12
TORSDOF 2
ENDMDL
MODEL 15
REMARK VINA RESULT:      -7.2      4.214     10.220
REMARK  2 active torsions:
REMARK  status: ('A' for Active; 'I' for Inactive)
REMARK    1  A    between atoms: N_3  and  C_15 
REMARK    2  A    between atoms: C_5  and  C_7 
ROOT
HETATM    1  S   UNL     1      30.205 -16.967 -14.378  1.00  0.00    -0.069 SA
HETATM    2  N   UNL     1      30.873 -19.374 -14.804  1.00  0.00    -0.344 N 
HETATM    3  C   UNL     1      30.733 -19.218 -13.448  1.00  0.00     0.052 A 
HETATM    4  C   UNL     1      30.584 -18.208 -15.476  1.00  0.00     0.087 A 
HETATM    5  C   UNL     1      30.366 -17.946 -13.038  1.00  0.00     0.034 A 
HETATM    6  C   UNL     1      30.942 -20.215 -12.479  1.00  0.00     0.031 A 
HETATM    7  C   UNL     1      30.188 -17.607 -11.700  1.00  0.00     0.028 A 
HETATM    8  C   UNL     1      31.344 -20.641 -15.380  1.00  0.00     0.157 C 
HETATM    9  C   UNL     1      30.390 -18.601 -10.725  1.00  0.00    -0.061 A 
HETATM   10  C   UNL     1      30.768 -19.902 -11.122  1.00  0.00     0.009 A 
HETATM   11  C   UNL     1      30.211 -18.292  -9.269  1.00  0.00     0.048 C 
ENDROOT
BRANCH   4  12
HETATM   12  C   UNL     1      30.545 -17.971 -16.955  1.00  0.00    -0.002 A 
HETATM   13  C   UNL     1      31.140 -16.855 -17.568  1.00  0.00     0.016 A 
HETATM   14  C   UNL     1      31.100 -16.685 -18.955  1.00  0.00     0.030 A 
HETATM   15  C   UNL     1      30.469 -17.631 -19.790  1.00  0.00     0.029 A 
HETATM   16  C   UNL     1      29.892 -18.761 -19.173  1.00  0.00     0.030 A 
HETATM   17  C   UNL     1      29.939 -18.930 -17.787  1.00  0.00     0.016 A 
BRANCH  15  18
HETATM   18  N   UNL     1      30.425 -17.455 -21.223  1.00  0.00    -0.390 N 
HETATM   19  C   UNL     1      30.294 -16.126 -21.804  1.00  0.00     0.149 C 
HETATM   20  C   UNL     1      30.510 -18.604 -22.114  1.00  0.00     0.149 C 
ENDBRANCH  15  18
ENDBRANCH   4  12
TORSDOF 2
ENDMDL
MODEL 16
REMARK VINA RESULT:      -7.2     27.943     29.066
REMARK  2 active torsions:
REMARK  status: ('A' for Active; 'I' for Inactive)
REMARK    1  A    between atoms: N_3  and  C_15 
REMARK    2  A    between atoms: C_5  and  C_7 
ROOT
HETATM    1  S   UNL     1      39.327   7.020 -11.259  1.00  0.00    -0.069 SA
HETATM    2  N   UNL     1      40.636   9.189 -11.321  1.00  0.00    -0.344 N 
HETATM    3  C   UNL     1      40.363   8.834 -12.618  1.00  0.00     0.052 A 
HETATM    4  C   UNL     1      40.098   8.287 -10.430  1.00  0.00     0.087 A 
HETATM    5  C   UNL     1      39.645   7.659 -12.766  1.00  0.00     0.034 A 
HETATM    6  C   UNL     1      40.759   9.543 -13.766  1.00  0.00     0.031 A 
HETATM    7  C   UNL     1      39.287   7.145 -14.010  1.00  0.00     0.028 A 
HETATM    8  C   UNL     1      41.466  10.361 -11.011  1.00  0.00     0.157 C 
HETATM    9  C   UNL     1      39.674   7.852 -15.163  1.00  0.00    -0.061 A 
HETATM   10  C   UNL     1      40.410   9.049 -15.033  1.00  0.00     0.009 A 
HETATM   11  C   UNL     1      39.316   7.346 -16.527  1.00  0.00     0.048 C 
ENDROOT
BRANCH   4  12
HETATM   12  C   UNL     1      40.105   8.343  -8.933  1.00  0.00    -0.002 A 
HETATM   13  C   UNL     1      40.720   9.379  -8.207  1.00  0.00     0.016 A 
HETATM   14  C   UNL     1      40.683   9.403  -6.810  1.00  0.00     0.030 A 
HETATM   15  C   UNL     1      40.020   8.395  -6.078  1.00  0.00     0.029 A 
HETATM   16  C   UNL     1      39.385   7.370  -6.810  1.00  0.00     0.030 A 
HETATM   17  C   UNL     1      39.420   7.352  -8.207  1.00  0.00     0.016 A 
BRANCH  15  18
HETATM   18  N   UNL     1      39.982   8.419  -4.634  1.00  0.00    -0.390 N 
HETATM   19  C   UNL     1      40.586   9.519  -3.894  1.00  0.00     0.149 C 
HETATM   20  C   UNL     1      39.341   7.343  -3.891  1.00  0.00     0.149 C 
ENDBRANCH  15  18
ENDBRANCH   4  12
TORSDOF 2
ENDMDL
MODEL 17
REMARK VINA RESULT:      -7.1      2.782      4.966
REMARK  2 active torsions:
REMARK  status: ('A' for Active; 'I' for Inactive)
REMARK    1  A    between atoms: N_3  and  C_15 
REMARK    2  A    between atoms: C_5  and  C_7 
ROOT
HETATM    1  S   UNL     1      30.036 -16.796 -14.730  1.00  0.00    -0.069 SA
HETATM    2  N   UNL     1      30.531 -19.256 -15.082  1.00  0.00    -0.344 N 
HETATM    3  C   UNL     1      30.450 -18.670 -16.320  1.00  0.00     0.052 A 
HETATM    4  C   UNL     1      30.349 -18.333 -14.076  1.00  0.00     0.087 A 
HETATM    5  C   UNL     1      30.182 -17.311 -16.309  1.00  0.00     0.034 A 
HETATM    6  C   UNL     1      30.599 -19.329 -17.553  1.00  0.00     0.031 A 
HETATM    7  C   UNL     1      30.057 -16.557 -17.473  1.00  0.00     0.028 A 
HETATM    8  C   UNL     1      30.720 -20.706 -14.936  1.00  0.00     0.157 C 
HETATM    9  C   UNL     1      30.211 -17.208 -18.711  1.00  0.00    -0.061 A 
HETATM   10  C   UNL     1      30.480 -18.593 -18.743  1.00  0.00     0.009 A 
HETATM   11  C   UNL     1      30.088 -16.447 -19.997  1.00  0.00     0.048 C 
ENDROOT
BRANCH   4  12
HETATM   12  C   UNL     1      30.432 -18.542 -12.595  1.00  0.00    -0.002 A 
HETATM   13  C   UNL     1      30.762 -19.779 -12.014  1.00  0.00     0.016 A 
HETATM   14  C   UNL     1      30.850 -19.925 -10.626  1.00  0.00     0.030 A 
HETATM   15  C   UNL     1      30.619 -18.836  -9.760  1.00  0.00     0.029 A 
HETATM   16  C   UNL     1      30.310 -17.591 -10.348  1.00  0.00     0.030 A 
HETATM   17  C   UNL     1      30.228 -17.448 -11.735  1.00  0.00     0.016 A 
BRANCH  15  18
HETATM   18  N   UNL     1      30.708 -18.985  -8.326  1.00  0.00    -0.390 N 
HETATM   19  C   UNL     1      30.538 -17.835  -7.448  1.00  0.00     0.149 C 
HETATM   20  C   UNL     1      30.971 -20.288  -7.730  1.00  0.00     0.149 C 
ENDBRANCH  15  18
ENDBRANCH   4  12
TORSDOF 2
ENDMDL
MODEL 18
REMARK VINA RESULT:      -7.1     28.411     30.787
REMARK  2 active torsions:
REMARK  status: ('A' for Active; 'I' for Inactive)
REMARK    1  A    between atoms: N_3  and  C_15 
REMARK    2  A    between atoms: C_5  and  C_7 
ROOT
HETATM    1  S   UNL     1      38.849   7.132 -15.208  1.00  0.00    -0.069 SA
HETATM    2  N   UNL     1      40.105   9.327 -15.363  1.00  0.00    -0.344 N 
HETATM    3  C   UNL     1      40.084   8.956 -14.042  1.00  0.00     0.052 A 
HETATM    4  C   UNL     1      39.477   8.394 -16.157  1.00  0.00     0.087 A 
HETATM    5  C   UNL     1      39.429   7.764 -13.778  1.00  0.00     0.034 A 
HETATM    6  C   UNL     1      40.645   9.680 -12.976  1.00  0.00     0.031 A 
HETATM    7  C   UNL     1      39.303   7.241 -12.494  1.00  0.00     0.028 A 
HETATM    8  C   UNL     1      40.684  10.610 -15.785  1.00  0.00     0.157 C 
HETATM    9  C   UNL     1      39.868   7.956 -11.422  1.00  0.00    -0.061 A 
HETATM   10  C   UNL     1      40.535   9.174 -11.670  1.00  0.00     0.009 A 
HETATM   11  C   UNL     1      39.764   7.440 -10.018  1.00  0.00     0.048 C 
ENDROOT
BRANCH   4  12
HETATM   12  C   UNL     1      39.343   8.380 -17.649  1.00  0.00    -0.002 A 
HETATM   13  C   UNL     1      40.278   7.759 -18.496  1.00  0.00     0.016 A 
HETATM   14  C   UNL     1      40.103   7.752 -19.884  1.00  0.00     0.030 A 
HETATM   15  C   UNL     1      38.978   8.357 -20.483  1.00  0.00     0.029 A 
HETATM   16  C   UNL     1      38.031   8.959 -19.628  1.00  0.00     0.030 A 
HETATM   17  C   UNL     1      38.207   8.961 -18.242  1.00  0.00     0.016 A 
BRANCH  15  18
HETATM   18  N   UNL     1      38.797   8.350 -21.915  1.00  0.00    -0.390 N 
HETATM   19  C   UNL     1      39.414   7.317 -22.737  1.00  0.00     0.149 C 
HETATM   20  C   UNL     1      37.994   9.377 -22.566  1.00  0.00     0.149 C 
ENDBRANCH  15  18
ENDBRANCH   4  12
TORSDOF 2
ENDMDL
MODEL 19
REMARK VINA RESULT:      -7.1      3.235      6.043
REMARK  2 active torsions:
REMARK  status: ('A' for Active; 'I' for Inactive)
REMARK    1  A    between atoms: N_3  and  C_15 
REMARK    2  A    between atoms: C_5  and  C_7 
ROOT
HETATM    1  S   UNL     1      30.265 -16.926 -16.326  1.00  0.00    -0.069 SA
HETATM    2  N   UNL     1      30.720 -19.369 -15.832  1.00  0.00    -0.344 N 
HETATM    3  C   UNL     1      30.623 -19.235 -17.194  1.00  0.00     0.052 A 
HETATM    4  C   UNL     1      30.571 -18.157 -15.196  1.00  0.00     0.087 A 
HETATM    5  C   UNL     1      30.373 -17.947 -17.640  1.00  0.00     0.034 A 
HETATM    6  C   UNL     1      30.739 -20.274 -18.134  1.00  0.00     0.031 A 
HETATM    7  C   UNL     1      30.236 -17.629 -18.989  1.00  0.00     0.028 A 
HETATM    8  C   UNL     1      30.893 -20.688 -15.207  1.00  0.00     0.157 C 
HETATM    9  C   UNL     1      30.356 -18.663 -19.936  1.00  0.00    -0.061 A 
HETATM   10  C   UNL     1      30.607 -19.981 -19.501  1.00  0.00     0.009 A 
HETATM   11  C   UNL     1      30.218 -18.378 -21.401  1.00  0.00     0.048 C 
ENDROOT
BRANCH   4  12
HETATM   12  C   UNL     1      30.679 -17.855 -13.732  1.00  0.00    -0.002 A 
HETATM   13  C   UNL     1      30.138 -18.688 -12.736  1.00  0.00     0.016 A 
HETATM   14  C   UNL     1      30.282 -18.380 -11.380  1.00  0.00     0.030 A 
HETATM   15  C   UNL     1      30.982 -17.229 -10.962  1.00  0.00     0.029 A 
HETATM   16  C   UNL     1      31.542 -16.408 -11.963  1.00  0.00     0.030 A 
HETATM   17  C   UNL     1      31.400 -16.722 -13.317  1.00  0.00     0.016 A 
BRANCH  15  18
HETATM   18  N   UNL     1      31.130 -16.909  -9.561  1.00  0.00    -0.390 N 
HETATM   19  C   UNL     1      30.474 -17.717  -8.542  1.00  0.00     0.149 C 
HETATM   20  C   UNL     1      31.937 -15.771  -9.141  1.00  0.00     0.149 C 
ENDBRANCH  15  18
ENDBRANCH   4  12
TORSDOF 2
ENDMDL
MODEL 20
REMARK VINA RESULT:      -7.0     28.334     29.711
REMARK  2 active torsions:
REMARK  status: ('A' for Active; 'I' for Inactive)
REMARK    1  A    between atoms: N_3  and  C_15 
REMARK    2  A    between atoms: C_5  and  C_7 
ROOT
HETATM    1  S   UNL     1      39.345   7.083 -16.176  1.00  0.00    -0.069 SA
HETATM    2  N   UNL     1      40.664   9.243 -16.311  1.00  0.00    -0.344 N 
HETATM    3  C   UNL     1      40.394   8.843 -17.596  1.00  0.00     0.052 A 
HETATM    4  C   UNL     1      40.118   8.377 -15.390  1.00  0.00     0.087 A 
HETATM    5  C   UNL     1      39.671   7.665 -17.704  1.00  0.00     0.034 A 
HETATM    6  C   UNL     1      40.798   9.508 -18.766  1.00  0.00     0.031 A 
HETATM    7  C   UNL     1      39.317   7.108 -18.929  1.00  0.00     0.028 A 
HETATM    8  C   UNL     1      41.497  10.422 -16.040  1.00  0.00     0.157 C 
HETATM    9  C   UNL     1      39.712   7.772 -20.106  1.00  0.00    -0.061 A 
HETATM   10  C   UNL     1      40.452   8.970 -20.016  1.00  0.00     0.009 A 
HETATM   11  C   UNL     1      39.357   7.218 -21.453  1.00  0.00     0.048 C 
ENDROOT
BRANCH   4  12
HETATM   12  C   UNL     1      40.119   8.486 -13.896  1.00  0.00    -0.002 A 
HETATM   13  C   UNL     1      40.691   9.571 -13.208  1.00  0.00     0.016 A 
HETATM   14  C   UNL     1      40.650   9.644 -11.812  1.00  0.00     0.030 A 
HETATM   15  C   UNL     1      40.025   8.639 -11.045  1.00  0.00     0.029 A 
HETATM   16  C   UNL     1      39.432   7.563 -11.740  1.00  0.00     0.030 A 
HETATM   17  C   UNL     1      39.471   7.496 -13.135  1.00  0.00     0.016 A 
BRANCH  15  18
HETATM   18  N   UNL     1      39.982   8.712  -9.603  1.00  0.00    -0.390 N 
HETATM   19  C   UNL     1      40.028  10.001  -8.925  1.00  0.00     0.149 C 
HETATM   20  C   UNL     1      39.894   7.501  -8.800  1.00  0.00     0.149 C 
ENDBRANCH  15  18
ENDBRANCH   4  12
TORSDOF 2
ENDMDL
