MODEL 1
REMARK VINA RESULT:      -5.0      0.000      0.000
REMARK  15 active torsions:
REMARK  status: ('A' for Active; 'I' for Inactive)
REMARK    1  A    between atoms: O_1  and  C_22 
REMARK    2  A    between atoms: C_3  and  C_4 
REMARK    3  A    between atoms: C_3  and  C_5 
REMARK    4  A    between atoms: C_4  and  C_6 
REMARK    5  A    between atoms: C_5  and  C_7 
REMARK    6  A    between atoms: C_9  and  C_10 
REMARK    7  A    between atoms: C_9  and  C_13 
REMARK    8  A    between atoms: C_10  and  C_14 
REMARK    9  A    between atoms: C_11  and  C_12 
REMARK   10  A    between atoms: C_12  and  C_16 
REMARK   11  A    between atoms: C_13  and  C_22 
REMARK   12  A    between atoms: C_15  and  C_17 
REMARK   13  A    between atoms: C_15  and  C_20 
REMARK   14  A    between atoms: C_18  and  C_19 
REMARK   15  A    between atoms: C_18  and  C_21 
ROOT
HETATM    1  O   UNL     1      38.533   6.505 -14.992  1.00  0.00    -0.776 OA
HETATM    2  H   UNL     1      37.593   6.728 -14.951  1.00  0.00     0.167 HD
ENDROOT
BRANCH   1   3
HETATM    3  C   UNL     1      39.459   7.240 -14.341  1.00  0.00     0.139 C 
HETATM    4  O   UNL     1      40.287   7.881 -14.972  1.00  0.00    -0.650 OA
BRANCH   3   5
HETATM    5  C   UNL     1      39.476   7.259 -12.838  1.00  0.00     0.110 C 
BRANCH   5   6
HETATM    6  C   UNL     1      40.117   8.537 -12.277  1.00  0.00     0.014 C 
BRANCH   6   7
HETATM    7  C   UNL     1      39.087   9.636 -11.984  1.00  0.00     0.027 C 
BRANCH   7   8
HETATM    8  C   UNL     1      37.769   9.009 -11.605  1.00  0.00    -0.030 C 
HETATM    9  C   UNL     1      37.370   8.741 -10.347  1.00  0.00    -0.027 C 
BRANCH   9  10
HETATM   10  C   UNL     1      38.158   9.043  -9.097  1.00  0.00     0.053 C 
BRANCH  10  11
HETATM   11  C   UNL     1      38.996   7.855  -8.678  1.00  0.00    -0.027 C 
HETATM   12  C   UNL     1      39.183   7.383  -7.428  1.00  0.00    -0.027 C 
BRANCH  12  13
HETATM   13  C   UNL     1      38.579   7.920  -6.156  1.00  0.00     0.053 C 
BRANCH  13  14
HETATM   14  C   UNL     1      38.876   6.984  -5.008  1.00  0.00    -0.027 C 
HETATM   15  C   UNL     1      39.392   7.357  -3.819  1.00  0.00    -0.027 C 
BRANCH  15  16
HETATM   16  C   UNL     1      39.771   8.770  -3.458  1.00  0.00     0.053 C 
BRANCH  16  17
HETATM   17  C   UNL     1      41.191   9.081  -3.859  1.00  0.00    -0.027 C 
HETATM   18  C   UNL     1      41.570  10.229  -4.448  1.00  0.00    -0.030 C 
BRANCH  18  19
HETATM   19  C   UNL     1      40.639  11.361  -4.803  1.00  0.00     0.027 C 
BRANCH  19  20
HETATM   20  C   UNL     1      40.375  11.355  -6.313  1.00  0.00     0.004 C 
BRANCH  20  21
HETATM   21  C   UNL     1      41.254  10.322  -7.026  1.00  0.00    -0.000 C 
BRANCH  21  22
HETATM   22  C   UNL     1      42.092  10.985  -8.126  1.00  0.00    -0.005 C 
HETATM   23  C   UNL     1      41.750  10.414  -9.499  1.00  0.00     0.005 C 
ENDBRANCH  21  22
ENDBRANCH  20  21
ENDBRANCH  19  20
ENDBRANCH  18  19
ENDBRANCH  16  17
ENDBRANCH  15  16
ENDBRANCH  13  14
ENDBRANCH  12  13
ENDBRANCH  10  11
ENDBRANCH   9  10
ENDBRANCH   7   8
ENDBRANCH   6   7
ENDBRANCH   5   6
ENDBRANCH   3   5
ENDBRANCH   1   3
TORSDOF 15
ENDMDL
MODEL 2
REMARK VINA RESULT:      -4.9     26.687     29.502
REMARK  15 active torsions:
REMARK  status: ('A' for Active; 'I' for Inactive)
REMARK    1  A    between atoms: O_1  and  C_22 
REMARK    2  A    between atoms: C_3  and  C_4 
REMARK    3  A    between atoms: C_3  and  C_5 
REMARK    4  A    between atoms: C_4  and  C_6 
REMARK    5  A    between atoms: C_5  and  C_7 
REMARK    6  A    between atoms: C_9  and  C_10 
REMARK    7  A    between atoms: C_9  and  C_13 
REMARK    8  A    between atoms: C_10  and  C_14 
REMARK    9  A    between atoms: C_11  and  C_12 
REMARK   10  A    between atoms: C_12  and  C_16 
REMARK   11  A    between atoms: C_13  and  C_22 
REMARK   12  A    between atoms: C_15  and  C_17 
REMARK   13  A    between atoms: C_15  and  C_20 
REMARK   14  A    between atoms: C_18  and  C_19 
REMARK   15  A    between atoms: C_18  and  C_21 
ROOT
HETATM    1  O   UNL     1      29.165 -18.765  -9.007  1.00  0.00    -0.776 OA
HETATM    2  H   UNL     1      28.787 -18.239  -9.726  1.00  0.00     0.167 HD
ENDROOT
BRANCH   1   3
HETATM    3  C   UNL     1      30.016 -19.783  -9.253  1.00  0.00     0.139 C 
HETATM    4  O   UNL     1      30.119 -20.702  -8.454  1.00  0.00    -0.650 OA
BRANCH   3   5
HETATM    5  C   UNL     1      30.847 -19.777 -10.507  1.00  0.00     0.110 C 
BRANCH   5   6
HETATM    6  C   UNL     1      30.676 -18.482 -11.314  1.00  0.00     0.014 C 
BRANCH   6   7
HETATM    7  C   UNL     1      30.215 -18.739 -12.754  1.00  0.00     0.027 C 
BRANCH   7   8
HETATM    8  C   UNL     1      30.682 -20.101 -13.202  1.00  0.00    -0.030 C 
HETATM    9  C   UNL     1      30.773 -20.509 -14.481  1.00  0.00    -0.027 C 
BRANCH   9  10
HETATM   10  C   UNL     1      30.448 -19.671 -15.692  1.00  0.00     0.053 C 
BRANCH  10  11
HETATM   11  C   UNL     1      31.016 -20.284 -16.952  1.00  0.00    -0.027 C 
HETATM   12  C   UNL     1      30.663 -20.017 -18.226  1.00  0.00    -0.027 C 
BRANCH  12  13
HETATM   13  C   UNL     1      29.628 -19.025 -18.692  1.00  0.00     0.053 C 
BRANCH  13  14
HETATM   14  C   UNL     1      30.305 -17.807 -19.276  1.00  0.00    -0.027 C 
HETATM   15  C   UNL     1      30.412 -16.612 -18.661  1.00  0.00    -0.027 C 
BRANCH  15  16
HETATM   16  C   UNL     1      29.855 -16.301 -17.296  1.00  0.00     0.053 C 
BRANCH  16  17
HETATM   17  C   UNL     1      30.955 -16.112 -16.281  1.00  0.00    -0.027 C 
HETATM   18  C   UNL     1      30.739 -15.801 -14.991  1.00  0.00    -0.030 C 
BRANCH  18  19
HETATM   19  C   UNL     1      29.380 -15.585 -14.374  1.00  0.00     0.027 C 
BRANCH  19  20
HETATM   20  C   UNL     1      29.347 -14.228 -13.663  1.00  0.00     0.004 C 
BRANCH  20  21
HETATM   21  C   UNL     1      30.076 -13.156 -14.479  1.00  0.00    -0.000 C 
BRANCH  21  22
HETATM   22  C   UNL     1      29.125 -12.495 -15.485  1.00  0.00    -0.005 C 
HETATM   23  C   UNL     1      29.707 -12.527 -16.895  1.00  0.00     0.005 C 
ENDBRANCH  21  22
ENDBRANCH  20  21
ENDBRANCH  19  20
ENDBRANCH  18  19
ENDBRANCH  16  17
ENDBRANCH  15  16
ENDBRANCH  13  14
ENDBRANCH  12  13
ENDBRANCH  10  11
ENDBRANCH   9  10
ENDBRANCH   7   8
ENDBRANCH   6   7
ENDBRANCH   5   6
ENDBRANCH   3   5
ENDBRANCH   1   3
TORSDOF 15
ENDMDL
MODEL 3
REMARK VINA RESULT:      -4.9      1.840      4.827
REMARK  15 active torsions:
REMARK  status: ('A' for Active; 'I' for Inactive)
REMARK    1  A    between atoms: O_1  and  C_22 
REMARK    2  A    between atoms: C_3  and  C_4 
REMARK    3  A    between atoms: C_3  and  C_5 
REMARK    4  A    between atoms: C_4  and  C_6 
REMARK    5  A    between atoms: C_5  and  C_7 
REMARK    6  A    between atoms: C_9  and  C_10 
REMARK    7  A    between atoms: C_9  and  C_13 
REMARK    8  A    between atoms: C_10  and  C_14 
REMARK    9  A    between atoms: C_11  and  C_12 
REMARK   10  A    between atoms: C_12  and  C_16 
REMARK   11  A    between atoms: C_13  and  C_22 
REMARK   12  A    between atoms: C_15  and  C_17 
REMARK   13  A    between atoms: C_15  and  C_20 
REMARK   14  A    between atoms: C_18  and  C_19 
REMARK   15  A    between atoms: C_18  and  C_21 
ROOT
HETATM    1  O   UNL     1      37.619   9.335 -17.583  1.00  0.00    -0.776 OA
HETATM    2  H   UNL     1      37.402   9.127 -18.503  1.00  0.00     0.167 HD
ENDROOT
BRANCH   1   3
HETATM    3  C   UNL     1      38.476   8.572 -16.872  1.00  0.00     0.139 C 
HETATM    4  O   UNL     1      39.486   8.130 -17.401  1.00  0.00    -0.650 OA
BRANCH   3   5
HETATM    5  C   UNL     1      38.180   8.257 -15.432  1.00  0.00     0.110 C 
BRANCH   5   6
HETATM    6  C   UNL     1      39.033   7.097 -14.900  1.00  0.00     0.014 C 
BRANCH   6   7
HETATM    7  C   UNL     1      39.979   7.528 -13.771  1.00  0.00     0.027 C 
BRANCH   7   8
HETATM    8  C   UNL     1      40.894   8.621 -14.264  1.00  0.00    -0.030 C 
HETATM    9  C   UNL     1      41.353   9.644 -13.519  1.00  0.00    -0.027 C 
BRANCH   9  10
HETATM   10  C   UNL     1      41.055   9.864 -12.058  1.00  0.00     0.053 C 
BRANCH  10  11
HETATM   11  C   UNL     1      40.263  11.135 -11.845  1.00  0.00    -0.027 C 
HETATM   12  C   UNL     1      38.932  11.305 -11.983  1.00  0.00    -0.027 C 
BRANCH  12  13
HETATM   13  C   UNL     1      37.918  10.257 -12.363  1.00  0.00     0.053 C 
BRANCH  13  14
HETATM   14  C   UNL     1      37.129   9.836 -11.146  1.00  0.00    -0.027 C 
HETATM   15  C   UNL     1      37.394   8.752 -10.389  1.00  0.00    -0.027 C 
BRANCH  15  16
HETATM   16  C   UNL     1      38.515   7.780 -10.652  1.00  0.00     0.053 C 
BRANCH  16  17
HETATM   17  C   UNL     1      38.946   7.078  -9.389  1.00  0.00    -0.027 C 
HETATM   18  C   UNL     1      39.934   7.515  -8.587  1.00  0.00    -0.030 C 
BRANCH  18  19
HETATM   19  C   UNL     1      40.758   8.753  -8.835  1.00  0.00     0.027 C 
BRANCH  19  20
HETATM   20  C   UNL     1      40.235   9.902  -7.966  1.00  0.00     0.004 C 
BRANCH  20  21
HETATM   21  C   UNL     1      40.951   9.943  -6.612  1.00  0.00    -0.000 C 
BRANCH  21  22
HETATM   22  C   UNL     1      40.005   9.522  -5.481  1.00  0.00    -0.005 C 
HETATM   23  C   UNL     1      40.388   8.156  -4.921  1.00  0.00     0.005 C 
ENDBRANCH  21  22
ENDBRANCH  20  21
ENDBRANCH  19  20
ENDBRANCH  18  19
ENDBRANCH  16  17
ENDBRANCH  15  16
ENDBRANCH  13  14
ENDBRANCH  12  13
ENDBRANCH  10  11
ENDBRANCH   9  10
ENDBRANCH   7   8
ENDBRANCH   6   7
ENDBRANCH   5   6
ENDBRANCH   3   5
ENDBRANCH   1   3
TORSDOF 15
ENDMDL
MODEL 4
REMARK VINA RESULT:      -4.8      4.553      8.594
REMARK  15 active torsions:
REMARK  status: ('A' for Active; 'I' for Inactive)
REMARK    1  A    between atoms: O_1  and  C_22 
REMARK    2  A    between atoms: C_3  and  C_4 
REMARK    3  A    between atoms: C_3  and  C_5 
REMARK    4  A    between atoms: C_4  and  C_6 
REMARK    5  A    between atoms: C_5  and  C_7 
REMARK    6  A    between atoms: C_9  and  C_10 
REMARK    7  A    between atoms: C_9  and  C_13 
REMARK    8  A    between atoms: C_10  and  C_14 
REMARK    9  A    between atoms: C_11  and  C_12 
REMARK   10  A    between atoms: C_12  and  C_16 
REMARK   11  A    between atoms: C_13  and  C_22 
REMARK   12  A    between atoms: C_15  and  C_17 
REMARK   13  A    between atoms: C_15  and  C_20 
REMARK   14  A    between atoms: C_18  and  C_19 
REMARK   15  A    between atoms: C_18  and  C_21 
ROOT
HETATM    1  O   UNL     1      38.852   6.363  -9.955  1.00  0.00    -0.776 OA
HETATM    2  H   UNL     1      38.981   6.104  -9.032  1.00  0.00     0.167 HD
ENDROOT
BRANCH   1   3
HETATM    3  C   UNL     1      38.876   7.659 -10.331  1.00  0.00     0.139 C 
HETATM    4  O   UNL     1      39.826   8.368 -10.029  1.00  0.00    -0.650 OA
BRANCH   3   5
HETATM    5  C   UNL     1      37.726   8.233 -11.113  1.00  0.00     0.110 C 
BRANCH   5   6
HETATM    6  C   UNL     1      37.710   9.768 -11.088  1.00  0.00     0.014 C 
BRANCH   6   7
HETATM    7  C   UNL     1      38.129  10.385 -12.428  1.00  0.00     0.027 C 
BRANCH   7   8
HETATM    8  C   UNL     1      36.901  10.721 -13.238  1.00  0.00    -0.030 C 
HETATM    9  C   UNL     1      36.736  10.448 -14.546  1.00  0.00    -0.027 C 
BRANCH   9  10
HETATM   10  C   UNL     1      37.736   9.740 -15.425  1.00  0.00     0.053 C 
BRANCH  10  11
HETATM   11  C   UNL     1      37.548   8.240 -15.372  1.00  0.00    -0.027 C 
HETATM   12  C   UNL     1      38.501   7.299 -15.213  1.00  0.00    -0.027 C 
BRANCH  12  13
HETATM   13  C   UNL     1      39.980   7.526 -15.032  1.00  0.00     0.053 C 
BRANCH  13  14
HETATM   14  C   UNL     1      40.264   7.975 -13.618  1.00  0.00    -0.027 C 
HETATM   15  C   UNL     1      41.120   8.960 -13.276  1.00  0.00    -0.027 C 
BRANCH  15  16
HETATM   16  C   UNL     1      41.940   9.757 -14.256  1.00  0.00     0.053 C 
BRANCH  16  17
HETATM   17  C   UNL     1      41.149  10.904 -14.834  1.00  0.00    -0.027 C 
HETATM   18  C   UNL     1      40.786  10.989 -16.126  1.00  0.00    -0.030 C 
BRANCH  18  19
HETATM   19  C   UNL     1      41.121   9.967 -17.183  1.00  0.00     0.027 C 
BRANCH  19  20
HETATM   20  C   UNL     1      40.298  10.243 -18.445  1.00  0.00     0.004 C 
BRANCH  20  21
HETATM   21  C   UNL     1      39.836   8.938 -19.103  1.00  0.00    -0.000 C 
BRANCH  21  22
HETATM   22  C   UNL     1      38.315   8.779 -18.991  1.00  0.00    -0.005 C 
HETATM   23  C   UNL     1      37.733   8.158 -20.257  1.00  0.00     0.005 C 
ENDBRANCH  21  22
ENDBRANCH  20  21
ENDBRANCH  19  20
ENDBRANCH  18  19
ENDBRANCH  16  17
ENDBRANCH  15  16
ENDBRANCH  13  14
ENDBRANCH  12  13
ENDBRANCH  10  11
ENDBRANCH   9  10
ENDBRANCH   7   8
ENDBRANCH   6   7
ENDBRANCH   5   6
ENDBRANCH   3   5
ENDBRANCH   1   3
TORSDOF 15
ENDMDL
MODEL 5
REMARK VINA RESULT:      -4.8     25.231     27.977
REMARK  15 active torsions:
REMARK  status: ('A' for Active; 'I' for Inactive)
REMARK    1  A    between atoms: O_1  and  C_22 
REMARK    2  A    between atoms: C_3  and  C_4 
REMARK    3  A    between atoms: C_3  and  C_5 
REMARK    4  A    between atoms: C_4  and  C_6 
REMARK    5  A    between atoms: C_5  and  C_7 
REMARK    6  A    between atoms: C_9  and  C_10 
REMARK    7  A    between atoms: C_9  and  C_13 
REMARK    8  A    between atoms: C_10  and  C_14 
REMARK    9  A    between atoms: C_11  and  C_12 
REMARK   10  A    between atoms: C_12  and  C_16 
REMARK   11  A    between atoms: C_13  and  C_22 
REMARK   12  A    between atoms: C_15  and  C_17 
REMARK   13  A    between atoms: C_15  and  C_20 
REMARK   14  A    between atoms: C_18  and  C_19 
REMARK   15  A    between atoms: C_18  and  C_21 
ROOT
HETATM    1  O   UNL     1      32.413 -20.471 -14.705  1.00  0.00    -0.776 OA
HETATM    2  H   UNL     1      33.108 -20.939 -15.188  1.00  0.00     0.167 HD
ENDROOT
BRANCH   1   3
HETATM    3  C   UNL     1      31.113 -20.594 -15.046  1.00  0.00     0.139 C 
HETATM    4  O   UNL     1      30.807 -20.908 -16.187  1.00  0.00    -0.650 OA
BRANCH   3   5
HETATM    5  C   UNL     1      30.043 -20.332 -14.023  1.00  0.00     0.110 C 
BRANCH   5   6
HETATM    6  C   UNL     1      30.569 -19.537 -12.819  1.00  0.00     0.014 C 
BRANCH   6   7
HETATM    7  C   UNL     1      30.183 -18.054 -12.876  1.00  0.00     0.027 C 
BRANCH   7   8
HETATM    8  C   UNL     1      31.292 -17.265 -13.525  1.00  0.00    -0.030 C 
HETATM    9  C   UNL     1      31.284 -16.812 -14.793  1.00  0.00    -0.027 C 
BRANCH   9  10
HETATM   10  C   UNL     1      30.158 -16.992 -15.778  1.00  0.00     0.053 C 
BRANCH  10  11
HETATM   11  C   UNL     1      30.674 -17.455 -17.123  1.00  0.00    -0.027 C 
HETATM   12  C   UNL     1      31.230 -16.699 -18.092  1.00  0.00    -0.027 C 
BRANCH  12  13
HETATM   13  C   UNL     1      31.484 -15.214 -18.051  1.00  0.00     0.053 C 
BRANCH  13  14
HETATM   14  C   UNL     1      30.332 -14.474 -18.690  1.00  0.00    -0.027 C 
HETATM   15  C   UNL     1      29.479 -13.660 -18.037  1.00  0.00    -0.027 C 
BRANCH  15  16
HETATM   16  C   UNL     1      29.534 -13.374 -16.559  1.00  0.00     0.053 C 
BRANCH  16  17
HETATM   17  C   UNL     1      28.155 -13.346 -15.949  1.00  0.00    -0.027 C 
HETATM   18  C   UNL     1      27.889 -13.700 -14.679  1.00  0.00    -0.030 C 
BRANCH  18  19
HETATM   19  C   UNL     1      28.917 -14.183 -13.688  1.00  0.00     0.027 C 
BRANCH  19  20
HETATM   20  C   UNL     1      29.356 -13.019 -12.794  1.00  0.00     0.004 C 
BRANCH  20  21
HETATM   21  C   UNL     1      30.693 -12.433 -13.263  1.00  0.00    -0.000 C 
BRANCH  21  22
HETATM   22  C   UNL     1      31.762 -13.527 -13.368  1.00  0.00    -0.005 C 
HETATM   23  C   UNL     1      32.655 -13.309 -14.586  1.00  0.00     0.005 C 
ENDBRANCH  21  22
ENDBRANCH  20  21
ENDBRANCH  19  20
ENDBRANCH  18  19
ENDBRANCH  16  17
ENDBRANCH  15  16
ENDBRANCH  13  14
ENDBRANCH  12  13
ENDBRANCH  10  11
ENDBRANCH   9  10
ENDBRANCH   7   8
ENDBRANCH   6   7
ENDBRANCH   5   6
ENDBRANCH   3   5
ENDBRANCH   1   3
TORSDOF 15
ENDMDL
MODEL 6
REMARK VINA RESULT:      -4.7     24.571     26.707
REMARK  15 active torsions:
REMARK  status: ('A' for Active; 'I' for Inactive)
REMARK    1  A    between atoms: O_1  and  C_22 
REMARK    2  A    between atoms: C_3  and  C_4 
REMARK    3  A    between atoms: C_3  and  C_5 
REMARK    4  A    between atoms: C_4  and  C_6 
REMARK    5  A    between atoms: C_5  and  C_7 
REMARK    6  A    between atoms: C_9  and  C_10 
REMARK    7  A    between atoms: C_9  and  C_13 
REMARK    8  A    between atoms: C_10  and  C_14 
REMARK    9  A    between atoms: C_11  and  C_12 
REMARK   10  A    between atoms: C_12  and  C_16 
REMARK   11  A    between atoms: C_13  and  C_22 
REMARK   12  A    between atoms: C_15  and  C_17 
REMARK   13  A    between atoms: C_15  and  C_20 
REMARK   14  A    between atoms: C_18  and  C_19 
REMARK   15  A    between atoms: C_18  and  C_21 
ROOT
HETATM    1  O   UNL     1      32.747 -20.307  -9.263  1.00  0.00    -0.776 OA
HETATM    2  H   UNL     1      33.260 -19.517  -9.483  1.00  0.00     0.167 HD
ENDROOT
BRANCH   1   3
HETATM    3  C   UNL     1      31.511 -20.506  -9.769  1.00  0.00     0.139 C 
HETATM    4  O   UNL     1      31.369 -20.763 -10.956  1.00  0.00    -0.650 OA
BRANCH   3   5
HETATM    5  C   UNL     1      30.310 -20.399  -8.871  1.00  0.00     0.110 C 
BRANCH   5   6
HETATM    6  C   UNL     1      29.619 -19.033  -8.980  1.00  0.00     0.014 C 
BRANCH   6   7
HETATM    7  C   UNL     1      30.462 -17.895  -8.389  1.00  0.00     0.027 C 
BRANCH   7   8
HETATM    8  C   UNL     1      30.232 -17.812  -6.901  1.00  0.00    -0.030 C 
HETATM    9  C   UNL     1      30.200 -16.674  -6.182  1.00  0.00    -0.027 C 
BRANCH   9  10
HETATM   10  C   UNL     1      30.363 -15.283  -6.740  1.00  0.00     0.053 C 
BRANCH  10  11
HETATM   11  C   UNL     1      31.824 -14.909  -6.863  1.00  0.00    -0.027 C 
HETATM   12  C   UNL     1      32.338 -13.730  -7.267  1.00  0.00    -0.027 C 
BRANCH  12  13
HETATM   13  C   UNL     1      31.571 -12.497  -7.674  1.00  0.00     0.053 C 
BRANCH  13  14
HETATM   14  C   UNL     1      32.408 -11.651  -8.604  1.00  0.00    -0.027 C 
HETATM   15  C   UNL     1      32.062 -11.313  -9.863  1.00  0.00    -0.027 C 
BRANCH  15  16
HETATM   16  C   UNL     1      30.788 -11.743 -10.543  1.00  0.00     0.053 C 
BRANCH  16  17
HETATM   17  C   UNL     1      31.066 -12.656 -11.711  1.00  0.00    -0.027 C 
HETATM   18  C   UNL     1      30.975 -13.996 -11.654  1.00  0.00    -0.030 C 
BRANCH  18  19
HETATM   19  C   UNL     1      30.596 -14.781 -10.423  1.00  0.00     0.027 C 
BRANCH  19  20
HETATM   20  C   UNL     1      29.106 -15.134 -10.476  1.00  0.00     0.004 C 
BRANCH  20  21
HETATM   21  C   UNL     1      28.277 -14.174  -9.617  1.00  0.00    -0.000 C 
BRANCH  21  22
HETATM   22  C   UNL     1      27.354 -13.317 -10.491  1.00  0.00    -0.005 C 
HETATM   23  C   UNL     1      27.186 -13.927 -11.879  1.00  0.00     0.005 C 
ENDBRANCH  21  22
ENDBRANCH  20  21
ENDBRANCH  19  20
ENDBRANCH  18  19
ENDBRANCH  16  17
ENDBRANCH  15  16
ENDBRANCH  13  14
ENDBRANCH  12  13
ENDBRANCH  10  11
ENDBRANCH   9  10
ENDBRANCH   7   8
ENDBRANCH   6   7
ENDBRANCH   5   6
ENDBRANCH   3   5
ENDBRANCH   1   3
TORSDOF 15
ENDMDL
MODEL 7
REMARK VINA RESULT:      -4.7     26.788     28.829
REMARK  15 active torsions:
REMARK  status: ('A' for Active; 'I' for Inactive)
REMARK    1  A    between atoms: O_1  and  C_22 
REMARK    2  A    between atoms: C_3  and  C_4 
REMARK    3  A    between atoms: C_3  and  C_5 
REMARK    4  A    between atoms: C_4  and  C_6 
REMARK    5  A    between atoms: C_5  and  C_7 
REMARK    6  A    between atoms: C_9  and  C_10 
REMARK    7  A    between atoms: C_9  and  C_13 
REMARK    8  A    between atoms: C_10  and  C_14 
REMARK    9  A    between atoms: C_11  and  C_12 
REMARK   10  A    between atoms: C_12  and  C_16 
REMARK   11  A    between atoms: C_13  and  C_22 
REMARK   12  A    between atoms: C_15  and  C_17 
REMARK   13  A    between atoms: C_15  and  C_20 
REMARK   14  A    between atoms: C_18  and  C_19 
REMARK   15  A    between atoms: C_18  and  C_21 
ROOT
HETATM    1  O   UNL     1      32.680 -20.282 -19.212  1.00  0.00    -0.776 OA
HETATM    2  H   UNL     1      33.480 -20.554 -19.683  1.00  0.00     0.167 HD
ENDROOT
BRANCH   1   3
HETATM    3  C   UNL     1      31.451 -20.506 -19.726  1.00  0.00     0.139 C 
HETATM    4  O   UNL     1      31.318 -20.727 -20.921  1.00  0.00    -0.650 OA
BRANCH   3   5
HETATM    5  C   UNL     1      30.247 -20.471 -18.826  1.00  0.00     0.110 C 
BRANCH   5   6
HETATM    6  C   UNL     1      29.981 -19.068 -18.261  1.00  0.00     0.014 C 
BRANCH   6   7
HETATM    7  C   UNL     1      30.467 -18.912 -16.814  1.00  0.00     0.027 C 
BRANCH   7   8
HETATM    8  C   UNL     1      30.865 -20.258 -16.263  1.00  0.00    -0.030 C 
HETATM    9  C   UNL     1      31.007 -20.551 -14.957  1.00  0.00    -0.027 C 
BRANCH   9  10
HETATM   10  C   UNL     1      30.769 -19.596 -13.815  1.00  0.00     0.053 C 
BRANCH  10  11
HETATM   11  C   UNL     1      30.887 -20.297 -12.480  1.00  0.00    -0.027 C 
HETATM   12  C   UNL     1      30.721 -19.759 -11.254  1.00  0.00    -0.027 C 
BRANCH  12  13
HETATM   13  C   UNL     1      30.358 -18.332 -10.930  1.00  0.00     0.053 C 
BRANCH  13  14
HETATM   14  C   UNL     1      30.158 -18.175  -9.441  1.00  0.00    -0.027 C 
HETATM   15  C   UNL     1      30.289 -17.018  -8.761  1.00  0.00    -0.027 C 
BRANCH  15  16
HETATM   16  C   UNL     1      30.673 -15.701  -9.383  1.00  0.00     0.053 C 
BRANCH  16  17
HETATM   17  C   UNL     1      32.167 -15.494  -9.362  1.00  0.00    -0.027 C 
HETATM   18  C   UNL     1      32.870 -14.999 -10.395  1.00  0.00    -0.030 C 
BRANCH  18  19
HETATM   19  C   UNL     1      32.279 -14.592 -11.721  1.00  0.00     0.027 C 
BRANCH  19  20
HETATM   20  C   UNL     1      32.542 -15.686 -12.760  1.00  0.00     0.004 C 
BRANCH  20  21
HETATM   21  C   UNL     1      31.255 -16.072 -13.498  1.00  0.00    -0.000 C 
BRANCH  21  22
HETATM   22  C   UNL     1      31.293 -15.588 -14.952  1.00  0.00    -0.005 C 
HETATM   23  C   UNL     1      29.896 -15.571 -15.564  1.00  0.00     0.005 C 
ENDBRANCH  21  22
ENDBRANCH  20  21
ENDBRANCH  19  20
ENDBRANCH  18  19
ENDBRANCH  16  17
ENDBRANCH  15  16
ENDBRANCH  13  14
ENDBRANCH  12  13
ENDBRANCH  10  11
ENDBRANCH   9  10
ENDBRANCH   7   8
ENDBRANCH   6   7
ENDBRANCH   5   6
ENDBRANCH   3   5
ENDBRANCH   1   3
TORSDOF 15
ENDMDL
MODEL 8
REMARK VINA RESULT:      -4.6     25.176     27.335
REMARK  15 active torsions:
REMARK  status: ('A' for Active; 'I' for Inactive)
REMARK    1  A    between atoms: O_1  and  C_22 
REMARK    2  A    between atoms: C_3  and  C_4 
REMARK    3  A    between atoms: C_3  and  C_5 
REMARK    4  A    between atoms: C_4  and  C_6 
REMARK    5  A    between atoms: C_5  and  C_7 
REMARK    6  A    between atoms: C_9  and  C_10 
REMARK    7  A    between atoms: C_9  and  C_13 
REMARK    8  A    between atoms: C_10  and  C_14 
REMARK    9  A    between atoms: C_11  and  C_12 
REMARK   10  A    between atoms: C_12  and  C_16 
REMARK   11  A    between atoms: C_13  and  C_22 
REMARK   12  A    between atoms: C_15  and  C_17 
REMARK   13  A    between atoms: C_15  and  C_20 
REMARK   14  A    between atoms: C_18  and  C_19 
REMARK   15  A    between atoms: C_18  and  C_21 
ROOT
HETATM    1  O   UNL     1      32.342 -20.704 -10.100  1.00  0.00    -0.776 OA
HETATM    2  H   UNL     1      33.049 -20.316 -10.635  1.00  0.00     0.167 HD
ENDROOT
BRANCH   1   3
HETATM    3  C   UNL     1      31.045 -20.582 -10.452  1.00  0.00     0.139 C 
HETATM    4  O   UNL     1      30.697 -20.823 -11.599  1.00  0.00    -0.650 OA
BRANCH   3   5
HETATM    5  C   UNL     1      30.032 -20.137  -9.434  1.00  0.00     0.110 C 
BRANCH   5   6
HETATM    6  C   UNL     1      30.671 -19.820  -8.074  1.00  0.00     0.014 C 
BRANCH   6   7
HETATM    7  C   UNL     1      30.248 -18.451  -7.526  1.00  0.00     0.027 C 
BRANCH   7   8
HETATM    8  C   UNL     1      30.531 -18.387  -6.046  1.00  0.00    -0.030 C 
HETATM    9  C   UNL     1      30.607 -17.256  -5.319  1.00  0.00    -0.027 C 
BRANCH   9  10
HETATM   10  C   UNL     1      30.399 -15.860  -5.848  1.00  0.00     0.053 C 
BRANCH  10  11
HETATM   11  C   UNL     1      29.026 -15.336  -5.490  1.00  0.00    -0.027 C 
HETATM   12  C   UNL     1      28.328 -14.368  -6.118  1.00  0.00    -0.027 C 
BRANCH  12  13
HETATM   13  C   UNL     1      28.748 -13.594  -7.341  1.00  0.00     0.053 C 
BRANCH  13  14
HETATM   14  C   UNL     1      27.942 -14.040  -8.538  1.00  0.00    -0.027 C 
HETATM   15  C   UNL     1      28.001 -13.479  -9.763  1.00  0.00    -0.027 C 
BRANCH  15  16
HETATM   16  C   UNL     1      28.873 -12.305 -10.123  1.00  0.00     0.053 C 
BRANCH  16  17
HETATM   17  C   UNL     1      29.137 -12.246 -11.607  1.00  0.00    -0.027 C 
HETATM   18  C   UNL     1      30.153 -12.884 -12.214  1.00  0.00    -0.030 C 
BRANCH  18  19
HETATM   19  C   UNL     1      31.179 -13.735 -11.509  1.00  0.00     0.027 C 
BRANCH  19  20
HETATM   20  C   UNL     1      30.783 -15.211 -11.614  1.00  0.00     0.004 C 
BRANCH  20  21
HETATM   21  C   UNL     1      30.801 -15.889 -10.240  1.00  0.00    -0.000 C 
BRANCH  21  22
HETATM   22  C   UNL     1      31.633 -15.077  -9.240  1.00  0.00    -0.005 C 
HETATM   23  C   UNL     1      32.768 -15.913  -8.659  1.00  0.00     0.005 C 
ENDBRANCH  21  22
ENDBRANCH  20  21
ENDBRANCH  19  20
ENDBRANCH  18  19
ENDBRANCH  16  17
ENDBRANCH  15  16
ENDBRANCH  13  14
ENDBRANCH  12  13
ENDBRANCH  10  11
ENDBRANCH   9  10
ENDBRANCH   7   8
ENDBRANCH   6   7
ENDBRANCH   5   6
ENDBRANCH   3   5
ENDBRANCH   1   3
TORSDOF 15
ENDMDL
MODEL 9
REMARK VINA RESULT:      -4.6      1.663      3.790
REMARK  15 active torsions:
REMARK  status: ('A' for Active; 'I' for Inactive)
REMARK    1  A    between atoms: O_1  and  C_22 
REMARK    2  A    between atoms: C_3  and  C_4 
REMARK    3  A    between atoms: C_3  and  C_5 
REMARK    4  A    between atoms: C_4  and  C_6 
REMARK    5  A    between atoms: C_5  and  C_7 
REMARK    6  A    between atoms: C_9  and  C_10 
REMARK    7  A    between atoms: C_9  and  C_13 
REMARK    8  A    between atoms: C_10  and  C_14 
REMARK    9  A    between atoms: C_11  and  C_12 
REMARK   10  A    between atoms: C_12  and  C_16 
REMARK   11  A    between atoms: C_13  and  C_22 
REMARK   12  A    between atoms: C_15  and  C_17 
REMARK   13  A    between atoms: C_15  and  C_20 
REMARK   14  A    between atoms: C_18  and  C_19 
REMARK   15  A    between atoms: C_18  and  C_21 
ROOT
HETATM    1  O   UNL     1      40.364  10.688 -13.987  1.00  0.00    -0.776 OA
HETATM    2  H   UNL     1      40.615  10.744 -13.054  1.00  0.00     0.167 HD
ENDROOT
BRANCH   1   3
HETATM    3  C   UNL     1      39.323   9.930 -14.391  1.00  0.00     0.139 C 
HETATM    4  O   UNL     1      38.545  10.356 -15.232  1.00  0.00    -0.650 OA
BRANCH   3   5
HETATM    5  C   UNL     1      39.116   8.565 -13.794  1.00  0.00     0.110 C 
BRANCH   5   6
HETATM    6  C   UNL     1      39.737   8.440 -12.395  1.00  0.00     0.014 C 
BRANCH   6   7
HETATM    7  C   UNL     1      39.228   7.210 -11.631  1.00  0.00     0.027 C 
BRANCH   7   8
HETATM    8  C   UNL     1      38.343   7.651 -10.492  1.00  0.00    -0.030 C 
HETATM    9  C   UNL     1      38.747   7.830  -9.220  1.00  0.00    -0.027 C 
BRANCH   9  10
HETATM   10  C   UNL     1      40.156   7.646  -8.715  1.00  0.00     0.053 C 
BRANCH  10  11
HETATM   11  C   UNL     1      40.999   8.873  -8.985  1.00  0.00    -0.027 C 
HETATM   12  C   UNL     1      41.077   9.994  -8.240  1.00  0.00    -0.027 C 
BRANCH  12  13
HETATM   13  C   UNL     1      40.352  10.279  -6.949  1.00  0.00     0.053 C 
BRANCH  13  14
HETATM   14  C   UNL     1      38.991  10.866  -7.239  1.00  0.00    -0.027 C 
HETATM   15  C   UNL     1      37.880  10.642  -6.507  1.00  0.00    -0.027 C 
BRANCH  15  16
HETATM   16  C   UNL     1      37.823   9.754  -5.291  1.00  0.00     0.053 C 
BRANCH  16  17
HETATM   17  C   UNL     1      37.571   8.315  -5.669  1.00  0.00    -0.027 C 
HETATM   18  C   UNL     1      38.422   7.309  -5.401  1.00  0.00    -0.030 C 
BRANCH  18  19
HETATM   19  C   UNL     1      39.747   7.468  -4.700  1.00  0.00     0.027 C 
BRANCH  19  20
HETATM   20  C   UNL     1      39.544   7.367  -3.185  1.00  0.00     0.004 C 
BRANCH  20  21
HETATM   21  C   UNL     1      39.891   8.688  -2.489  1.00  0.00    -0.000 C 
BRANCH  21  22
HETATM   22  C   UNL     1      40.994   9.433  -3.250  1.00  0.00    -0.005 C 
HETATM   23  C   UNL     1      41.548  10.590  -2.424  1.00  0.00     0.005 C 
ENDBRANCH  21  22
ENDBRANCH  20  21
ENDBRANCH  19  20
ENDBRANCH  18  19
ENDBRANCH  16  17
ENDBRANCH  15  16
ENDBRANCH  13  14
ENDBRANCH  12  13
ENDBRANCH  10  11
ENDBRANCH   9  10
ENDBRANCH   7   8
ENDBRANCH   6   7
ENDBRANCH   5   6
ENDBRANCH   3   5
ENDBRANCH   1   3
TORSDOF 15
ENDMDL
MODEL 10
REMARK VINA RESULT:      -4.6      2.857      6.636
REMARK  15 active torsions:
REMARK  status: ('A' for Active; 'I' for Inactive)
REMARK    1  A    between atoms: O_1  and  C_22 
REMARK    2  A    between atoms: C_3  and  C_4 
REMARK    3  A    between atoms: C_3  and  C_5 
REMARK    4  A    between atoms: C_4  and  C_6 
REMARK    5  A    between atoms: C_5  and  C_7 
REMARK    6  A    between atoms: C_9  and  C_10 
REMARK    7  A    between atoms: C_9  and  C_13 
REMARK    8  A    between atoms: C_10  and  C_14 
REMARK    9  A    between atoms: C_11  and  C_12 
REMARK   10  A    between atoms: C_12  and  C_16 
REMARK   11  A    between atoms: C_13  and  C_22 
REMARK   12  A    between atoms: C_15  and  C_17 
REMARK   13  A    between atoms: C_15  and  C_20 
REMARK   14  A    between atoms: C_18  and  C_19 
REMARK   15  A    between atoms: C_18  and  C_21 
ROOT
HETATM    1  O   UNL     1      40.792  12.419 -15.371  1.00  0.00    -0.776 OA
HETATM    2  H   UNL     1      40.263  12.085 -14.633  1.00  0.00     0.167 HD
ENDROOT
BRANCH   1   3
HETATM    3  C   UNL     1      41.649  11.618 -16.040  1.00  0.00     0.139 C 
HETATM    4  O   UNL     1      42.848  11.680 -15.815  1.00  0.00    -0.650 OA
BRANCH   3   5
HETATM    5  C   UNL     1      41.123  10.658 -17.072  1.00  0.00     0.110 C 
BRANCH   5   6
HETATM    6  C   UNL     1      39.609  10.797 -17.281  1.00  0.00     0.014 C 
BRANCH   6   7
HETATM    7  C   UNL     1      39.033   9.701 -18.187  1.00  0.00     0.027 C 
BRANCH   7   8
HETATM    8  C   UNL     1      39.856   8.444 -18.049  1.00  0.00    -0.030 C 
HETATM    9  C   UNL     1      39.611   7.448 -17.177  1.00  0.00    -0.027 C 
BRANCH   9  10
HETATM   10  C   UNL     1      38.461   7.400 -16.204  1.00  0.00     0.053 C 
BRANCH  10  11
HETATM   11  C   UNL     1      38.897   6.845 -14.866  1.00  0.00    -0.027 C 
HETATM   12  C   UNL     1      39.426   7.526 -13.829  1.00  0.00    -0.027 C 
BRANCH  12  13
HETATM   13  C   UNL     1      39.688   9.009 -13.755  1.00  0.00     0.053 C 
BRANCH  13  14
HETATM   14  C   UNL     1      38.382   9.766 -13.782  1.00  0.00    -0.027 C 
HETATM   15  C   UNL     1      37.700  10.170 -12.690  1.00  0.00    -0.027 C 
BRANCH  15  16
HETATM   16  C   UNL     1      38.130   9.911 -11.270  1.00  0.00     0.053 C 
BRANCH  16  17
HETATM   17  C   UNL     1      37.565   8.612 -10.750  1.00  0.00    -0.027 C 
HETATM   18  C   UNL     1      38.317   7.611 -10.261  1.00  0.00    -0.030 C 
BRANCH  18  19
HETATM   19  C   UNL     1      39.822   7.629 -10.171  1.00  0.00     0.027 C 
BRANCH  19  20
HETATM   20  C   UNL     1      40.247   7.897  -8.723  1.00  0.00     0.004 C 
BRANCH  20  21
HETATM   21  C   UNL     1      39.350   7.146  -7.733  1.00  0.00    -0.000 C 
BRANCH  21  22
HETATM   22  C   UNL     1      39.094   7.991  -6.479  1.00  0.00    -0.005 C 
HETATM   23  C   UNL     1      38.671   7.116  -5.303  1.00  0.00     0.005 C 
ENDBRANCH  21  22
ENDBRANCH  20  21
ENDBRANCH  19  20
ENDBRANCH  18  19
ENDBRANCH  16  17
ENDBRANCH  15  16
ENDBRANCH  13  14
ENDBRANCH  12  13
ENDBRANCH  10  11
ENDBRANCH   9  10
ENDBRANCH   7   8
ENDBRANCH   6   7
ENDBRANCH   5   6
ENDBRANCH   3   5
ENDBRANCH   1   3
TORSDOF 15
ENDMDL
MODEL 11
REMARK VINA RESULT:      -4.6     24.782     26.801
REMARK  15 active torsions:
REMARK  status: ('A' for Active; 'I' for Inactive)
REMARK    1  A    between atoms: O_1  and  C_22 
REMARK    2  A    between atoms: C_3  and  C_4 
REMARK    3  A    between atoms: C_3  and  C_5 
REMARK    4  A    between atoms: C_4  and  C_6 
REMARK    5  A    between atoms: C_5  and  C_7 
REMARK    6  A    between atoms: C_9  and  C_10 
REMARK    7  A    between atoms: C_9  and  C_13 
REMARK    8  A    between atoms: C_10  and  C_14 
REMARK    9  A    between atoms: C_11  and  C_12 
REMARK   10  A    between atoms: C_12  and  C_16 
REMARK   11  A    between atoms: C_13  and  C_22 
REMARK   12  A    between atoms: C_15  and  C_17 
REMARK   13  A    between atoms: C_15  and  C_20 
REMARK   14  A    between atoms: C_18  and  C_19 
REMARK   15  A    between atoms: C_18  and  C_21 
ROOT
HETATM    1  O   UNL     1      31.769 -21.128 -14.968  1.00  0.00    -0.776 OA
HETATM    2  H   UNL     1      32.708 -20.941 -14.829  1.00  0.00     0.167 HD
ENDROOT
BRANCH   1   3
HETATM    3  C   UNL     1      31.014 -20.365 -15.787  1.00  0.00     0.139 C 
HETATM    4  O   UNL     1      30.735 -20.761 -16.909  1.00  0.00    -0.650 OA
BRANCH   3   5
HETATM    5  C   UNL     1      30.528 -19.021 -15.319  1.00  0.00     0.110 C 
BRANCH   5   6
HETATM    6  C   UNL     1      29.995 -19.061 -13.880  1.00  0.00     0.014 C 
BRANCH   6   7
HETATM    7  C   UNL     1      30.888 -18.293 -12.896  1.00  0.00     0.027 C 
BRANCH   7   8
HETATM    8  C   UNL     1      30.070 -17.251 -12.176  1.00  0.00    -0.030 C 
HETATM    9  C   UNL     1      29.993 -15.951 -12.520  1.00  0.00    -0.027 C 
BRANCH   9  10
HETATM   10  C   UNL     1      30.689 -15.315 -13.696  1.00  0.00     0.053 C 
BRANCH  10  11
HETATM   11  C   UNL     1      32.033 -14.747 -13.297  1.00  0.00    -0.027 C 
HETATM   12  C   UNL     1      32.289 -13.522 -12.793  1.00  0.00    -0.027 C 
BRANCH  12  13
HETATM   13  C   UNL     1      31.286 -12.438 -12.490  1.00  0.00     0.053 C 
BRANCH  13  14
HETATM   14  C   UNL     1      31.397 -12.021 -11.043  1.00  0.00    -0.027 C 
HETATM   15  C   UNL     1      30.354 -11.712 -10.245  1.00  0.00    -0.027 C 
BRANCH  15  16
HETATM   16  C   UNL     1      28.913 -11.718 -10.683  1.00  0.00     0.053 C 
BRANCH  16  17
HETATM   17  C   UNL     1      28.415 -13.122 -10.924  1.00  0.00    -0.027 C 
HETATM   18  C   UNL     1      28.142 -13.999  -9.942  1.00  0.00    -0.030 C 
BRANCH  18  19
HETATM   19  C   UNL     1      28.303 -13.719  -8.469  1.00  0.00     0.027 C 
BRANCH  19  20
HETATM   20  C   UNL     1      29.421 -14.597  -7.898  1.00  0.00     0.004 C 
BRANCH  20  21
HETATM   21  C   UNL     1      29.646 -15.841  -8.763  1.00  0.00    -0.000 C 
BRANCH  21  22
HETATM   22  C   UNL     1      31.124 -16.253  -8.753  1.00  0.00    -0.005 C 
HETATM   23  C   UNL     1      31.994 -15.198  -9.430  1.00  0.00     0.005 C 
ENDBRANCH  21  22
ENDBRANCH  20  21
ENDBRANCH  19  20
ENDBRANCH  18  19
ENDBRANCH  16  17
ENDBRANCH  15  16
ENDBRANCH  13  14
ENDBRANCH  12  13
ENDBRANCH  10  11
ENDBRANCH   9  10
ENDBRANCH   7   8
ENDBRANCH   6   7
ENDBRANCH   5   6
ENDBRANCH   3   5
ENDBRANCH   1   3
TORSDOF 15
ENDMDL
MODEL 12
REMARK VINA RESULT:      -4.6      3.281      5.714
REMARK  15 active torsions:
REMARK  status: ('A' for Active; 'I' for Inactive)
REMARK    1  A    between atoms: O_1  and  C_22 
REMARK    2  A    between atoms: C_3  and  C_4 
REMARK    3  A    between atoms: C_3  and  C_5 
REMARK    4  A    between atoms: C_4  and  C_6 
REMARK    5  A    between atoms: C_5  and  C_7 
REMARK    6  A    between atoms: C_9  and  C_10 
REMARK    7  A    between atoms: C_9  and  C_13 
REMARK    8  A    between atoms: C_10  and  C_14 
REMARK    9  A    between atoms: C_11  and  C_12 
REMARK   10  A    between atoms: C_12  and  C_16 
REMARK   11  A    between atoms: C_13  and  C_22 
REMARK   12  A    between atoms: C_15  and  C_17 
REMARK   13  A    between atoms: C_15  and  C_20 
REMARK   14  A    between atoms: C_18  and  C_19 
REMARK   15  A    between atoms: C_18  and  C_21 
ROOT
HETATM    1  O   UNL     1      43.485  13.296 -14.055  1.00  0.00    -0.776 OA
HETATM    2  H   UNL     1      42.877  13.770 -14.640  1.00  0.00     0.167 HD
ENDROOT
BRANCH   1   3
HETATM    3  C   UNL     1      43.053  12.308 -13.243  1.00  0.00     0.139 C 
HETATM    4  O   UNL     1      43.415  12.272 -12.076  1.00  0.00    -0.650 OA
BRANCH   3   5
HETATM    5  C   UNL     1      42.133  11.247 -13.781  1.00  0.00     0.110 C 
BRANCH   5   6
HETATM    6  C   UNL     1      41.533  10.375 -12.669  1.00  0.00     0.014 C 
BRANCH   6   7
HETATM    7  C   UNL     1      41.051   9.012 -13.181  1.00  0.00     0.027 C 
BRANCH   7   8
HETATM    8  C   UNL     1      40.890   9.060 -14.679  1.00  0.00    -0.030 C 
HETATM    9  C   UNL     1      39.762   8.759 -15.349  1.00  0.00    -0.027 C 
BRANCH   9  10
HETATM   10  C   UNL     1      38.456   8.345 -14.720  1.00  0.00     0.053 C 
BRANCH  10  11
HETATM   11  C   UNL     1      37.456   9.481 -14.734  1.00  0.00    -0.027 C 
HETATM   12  C   UNL     1      37.232  10.387 -13.761  1.00  0.00    -0.027 C 
BRANCH  12  13
HETATM   13  C   UNL     1      37.942  10.491 -12.435  1.00  0.00     0.053 C 
BRANCH  13  14
HETATM   14  C   UNL     1      37.069   9.934 -11.336  1.00  0.00    -0.027 C 
HETATM   15  C   UNL     1      37.294   8.777 -10.680  1.00  0.00    -0.027 C 
BRANCH  15  16
HETATM   16  C   UNL     1      38.449   7.851 -10.956  1.00  0.00     0.053 C 
BRANCH  16  17
HETATM   17  C   UNL     1      38.932   7.178  -9.695  1.00  0.00    -0.027 C 
HETATM   18  C   UNL     1      40.050   7.532  -9.037  1.00  0.00    -0.030 C 
BRANCH  18  19
HETATM   19  C   UNL     1      40.986   8.634  -9.463  1.00  0.00     0.027 C 
BRANCH  19  20
HETATM   20  C   UNL     1      41.000   9.737  -8.400  1.00  0.00     0.004 C 
BRANCH  20  21
HETATM   21  C   UNL     1      39.762  10.633  -8.514  1.00  0.00    -0.000 C 
BRANCH  21  22
HETATM   22  C   UNL     1      38.981  10.656  -7.195  1.00  0.00    -0.005 C 
HETATM   23  C   UNL     1      37.678   9.870  -7.313  1.00  0.00     0.005 C 
ENDBRANCH  21  22
ENDBRANCH  20  21
ENDBRANCH  19  20
ENDBRANCH  18  19
ENDBRANCH  16  17
ENDBRANCH  15  16
ENDBRANCH  13  14
ENDBRANCH  12  13
ENDBRANCH  10  11
ENDBRANCH   9  10
ENDBRANCH   7   8
ENDBRANCH   6   7
ENDBRANCH   5   6
ENDBRANCH   3   5
ENDBRANCH   1   3
TORSDOF 15
ENDMDL
MODEL 13
REMARK VINA RESULT:      -4.6      1.084      2.019
REMARK  15 active torsions:
REMARK  status: ('A' for Active; 'I' for Inactive)
REMARK    1  A    between atoms: O_1  and  C_22 
REMARK    2  A    between atoms: C_3  and  C_4 
REMARK    3  A    between atoms: C_3  and  C_5 
REMARK    4  A    between atoms: C_4  and  C_6 
REMARK    5  A    between atoms: C_5  and  C_7 
REMARK    6  A    between atoms: C_9  and  C_10 
REMARK    7  A    between atoms: C_9  and  C_13 
REMARK    8  A    between atoms: C_10  and  C_14 
REMARK    9  A    between atoms: C_11  and  C_12 
REMARK   10  A    between atoms: C_12  and  C_16 
REMARK   11  A    between atoms: C_13  and  C_22 
REMARK   12  A    between atoms: C_15  and  C_17 
REMARK   13  A    between atoms: C_15  and  C_20 
REMARK   14  A    between atoms: C_18  and  C_19 
REMARK   15  A    between atoms: C_18  and  C_21 
ROOT
HETATM    1  O   UNL     1      38.495   6.875 -15.053  1.00  0.00    -0.776 OA
HETATM    2  H   UNL     1      37.570   7.089 -14.865  1.00  0.00     0.167 HD
ENDROOT
BRANCH   1   3
HETATM    3  C   UNL     1      39.506   7.505 -14.418  1.00  0.00     0.139 C 
HETATM    4  O   UNL     1      40.329   8.142 -15.059  1.00  0.00    -0.650 OA
BRANCH   3   5
HETATM    5  C   UNL     1      39.622   7.412 -12.922  1.00  0.00     0.110 C 
BRANCH   5   6
HETATM    6  C   UNL     1      40.120   8.720 -12.292  1.00  0.00     0.014 C 
BRANCH   6   7
HETATM    7  C   UNL     1      38.983   9.710 -12.007  1.00  0.00     0.027 C 
BRANCH   7   8
HETATM    8  C   UNL     1      37.771   8.962 -11.510  1.00  0.00    -0.030 C 
HETATM    9  C   UNL     1      37.435   8.802 -10.216  1.00  0.00    -0.027 C 
BRANCH   9  10
HETATM   10  C   UNL     1      38.194   9.361  -9.039  1.00  0.00     0.053 C 
BRANCH  10  11
HETATM   11  C   UNL     1      39.253   8.393  -8.560  1.00  0.00    -0.027 C 
HETATM   12  C   UNL     1      39.337   7.800  -7.352  1.00  0.00    -0.027 C 
BRANCH  12  13
HETATM   13  C   UNL     1      38.376   7.950  -6.199  1.00  0.00     0.053 C 
BRANCH  13  14
HETATM   14  C   UNL     1      38.702   6.944  -5.121  1.00  0.00    -0.027 C 
HETATM   15  C   UNL     1      39.313   7.231  -3.953  1.00  0.00    -0.027 C 
BRANCH  15  16
HETATM   16  C   UNL     1      39.782   8.605  -3.551  1.00  0.00     0.053 C 
BRANCH  16  17
HETATM   17  C   UNL     1      41.155   8.903  -4.099  1.00  0.00    -0.027 C 
HETATM   18  C   UNL     1      41.509  10.084  -4.634  1.00  0.00    -0.030 C 
BRANCH  18  19
HETATM   19  C   UNL     1      40.592  11.273  -4.776  1.00  0.00     0.027 C 
BRANCH  19  20
HETATM   20  C   UNL     1      39.984  11.288  -6.182  1.00  0.00     0.004 C 
BRANCH  20  21
HETATM   21  C   UNL     1      38.515  11.725  -6.147  1.00  0.00    -0.000 C 
BRANCH  21  22
HETATM   22  C   UNL     1      37.981  11.728  -4.709  1.00  0.00    -0.005 C 
HETATM   23  C   UNL     1      36.853  10.716  -4.538  1.00  0.00     0.005 C 
ENDBRANCH  21  22
ENDBRANCH  20  21
ENDBRANCH  19  20
ENDBRANCH  18  19
ENDBRANCH  16  17
ENDBRANCH  15  16
ENDBRANCH  13  14
ENDBRANCH  12  13
ENDBRANCH  10  11
ENDBRANCH   9  10
ENDBRANCH   7   8
ENDBRANCH   6   7
ENDBRANCH   5   6
ENDBRANCH   3   5
ENDBRANCH   1   3
TORSDOF 15
ENDMDL
MODEL 14
REMARK VINA RESULT:      -4.6     25.715     27.696
REMARK  15 active torsions:
REMARK  status: ('A' for Active; 'I' for Inactive)
REMARK    1  A    between atoms: O_1  and  C_22 
REMARK    2  A    between atoms: C_3  and  C_4 
REMARK    3  A    between atoms: C_3  and  C_5 
REMARK    4  A    between atoms: C_4  and  C_6 
REMARK    5  A    between atoms: C_5  and  C_7 
REMARK    6  A    between atoms: C_9  and  C_10 
REMARK    7  A    between atoms: C_9  and  C_13 
REMARK    8  A    between atoms: C_10  and  C_14 
REMARK    9  A    between atoms: C_11  and  C_12 
REMARK   10  A    between atoms: C_12  and  C_16 
REMARK   11  A    between atoms: C_13  and  C_22 
REMARK   12  A    between atoms: C_15  and  C_17 
REMARK   13  A    between atoms: C_15  and  C_20 
REMARK   14  A    between atoms: C_18  and  C_19 
REMARK   15  A    between atoms: C_18  and  C_21 
ROOT
HETATM    1  O   UNL     1      30.700 -21.390 -15.108  1.00  0.00    -0.776 OA
HETATM    2  H   UNL     1      31.330 -21.543 -15.826  1.00  0.00     0.167 HD
ENDROOT
BRANCH   1   3
HETATM    3  C   UNL     1      30.666 -20.218 -14.439  1.00  0.00     0.139 C 
HETATM    4  O   UNL     1      30.566 -19.166 -15.052  1.00  0.00    -0.650 OA
BRANCH   3   5
HETATM    5  C   UNL     1      30.766 -20.211 -12.938  1.00  0.00     0.110 C 
BRANCH   5   6
HETATM    6  C   UNL     1      30.558 -18.810 -12.346  1.00  0.00     0.014 C 
BRANCH   6   7
HETATM    7  C   UNL     1      30.271 -18.842 -10.839  1.00  0.00     0.027 C 
BRANCH   7   8
HETATM    8  C   UNL     1      31.294 -19.705 -10.145  1.00  0.00    -0.030 C 
HETATM    9  C   UNL     1      31.221 -20.119  -8.866  1.00  0.00    -0.027 C 
BRANCH   9  10
HETATM   10  C   UNL     1      30.095 -19.814  -7.911  1.00  0.00     0.053 C 
BRANCH  10  11
HETATM   11  C   UNL     1      30.542 -18.863  -6.823  1.00  0.00    -0.027 C 
HETATM   12  C   UNL     1      30.571 -17.515  -6.873  1.00  0.00    -0.027 C 
BRANCH  12  13
HETATM   13  C   UNL     1      30.144 -16.640  -8.023  1.00  0.00     0.053 C 
BRANCH  13  14
HETATM   14  C   UNL     1      31.118 -15.498  -8.194  1.00  0.00    -0.027 C 
HETATM   15  C   UNL     1      30.780 -14.193  -8.238  1.00  0.00    -0.027 C 
BRANCH  15  16
HETATM   16  C   UNL     1      29.370 -13.673  -8.140  1.00  0.00     0.053 C 
BRANCH  16  17
HETATM   17  C   UNL     1      29.304 -12.403  -7.328  1.00  0.00    -0.027 C 
HETATM   18  C   UNL     1      28.617 -12.283  -6.179  1.00  0.00    -0.030 C 
BRANCH  18  19
HETATM   19  C   UNL     1      27.808 -13.384  -5.542  1.00  0.00     0.027 C 
BRANCH  19  20
HETATM   20  C   UNL     1      28.493 -13.846  -4.251  1.00  0.00     0.004 C 
BRANCH  20  21
HETATM   21  C   UNL     1      29.048 -15.267  -4.396  1.00  0.00    -0.000 C 
BRANCH  21  22
HETATM   22  C   UNL     1      30.500 -15.338  -3.908  1.00  0.00    -0.005 C 
HETATM   23  C   UNL     1      31.374 -14.316  -4.627  1.00  0.00     0.005 C 
ENDBRANCH  21  22
ENDBRANCH  20  21
ENDBRANCH  19  20
ENDBRANCH  18  19
ENDBRANCH  16  17
ENDBRANCH  15  16
ENDBRANCH  13  14
ENDBRANCH  12  13
ENDBRANCH  10  11
ENDBRANCH   9  10
ENDBRANCH   7   8
ENDBRANCH   6   7
ENDBRANCH   5   6
ENDBRANCH   3   5
ENDBRANCH   1   3
TORSDOF 15
ENDMDL
MODEL 15
REMARK VINA RESULT:      -4.5      3.946      7.759
REMARK  15 active torsions:
REMARK  status: ('A' for Active; 'I' for Inactive)
REMARK    1  A    between atoms: O_1  and  C_22 
REMARK    2  A    between atoms: C_3  and  C_4 
REMARK    3  A    between atoms: C_3  and  C_5 
REMARK    4  A    between atoms: C_4  and  C_6 
REMARK    5  A    between atoms: C_5  and  C_7 
REMARK    6  A    between atoms: C_9  and  C_10 
REMARK    7  A    between atoms: C_9  and  C_13 
REMARK    8  A    between atoms: C_10  and  C_14 
REMARK    9  A    between atoms: C_11  and  C_12 
REMARK   10  A    between atoms: C_12  and  C_16 
REMARK   11  A    between atoms: C_13  and  C_22 
REMARK   12  A    between atoms: C_15  and  C_17 
REMARK   13  A    between atoms: C_15  and  C_20 
REMARK   14  A    between atoms: C_18  and  C_19 
REMARK   15  A    between atoms: C_18  and  C_21 
ROOT
HETATM    1  O   UNL     1      41.743  13.432 -16.861  1.00  0.00    -0.776 OA
HETATM    2  H   UNL     1      40.824  13.443 -17.162  1.00  0.00     0.167 HD
ENDROOT
BRANCH   1   3
HETATM    3  C   UNL     1      42.494  12.313 -16.938  1.00  0.00     0.139 C 
HETATM    4  O   UNL     1      42.615  11.587 -15.962  1.00  0.00    -0.650 OA
BRANCH   3   5
HETATM    5  C   UNL     1      43.192  11.969 -18.225  1.00  0.00     0.110 C 
BRANCH   5   6
HETATM    6  C   UNL     1      42.249  11.315 -19.245  1.00  0.00     0.014 C 
BRANCH   6   7
HETATM    7  C   UNL     1      41.662   9.990 -18.742  1.00  0.00     0.027 C 
BRANCH   7   8
HETATM    8  C   UNL     1      40.851   9.346 -19.838  1.00  0.00    -0.030 C 
HETATM    9  C   UNL     1      40.051   8.273 -19.685  1.00  0.00    -0.027 C 
BRANCH   9  10
HETATM   10  C   UNL     1      39.806   7.544 -18.388  1.00  0.00     0.053 C 
BRANCH  10  11
HETATM   11  C   UNL     1      38.791   8.270 -17.533  1.00  0.00    -0.027 C 
HETATM   12  C   UNL     1      38.524   8.067 -16.227  1.00  0.00    -0.027 C 
BRANCH  12  13
HETATM   13  C   UNL     1      39.193   7.079 -15.306  1.00  0.00     0.053 C 
BRANCH  13  14
HETATM   14  C   UNL     1      40.396   7.715 -14.651  1.00  0.00    -0.027 C 
HETATM   15  C   UNL     1      40.420   8.218 -13.400  1.00  0.00    -0.027 C 
BRANCH  15  16
HETATM   16  C   UNL     1      39.239   8.238 -12.465  1.00  0.00     0.053 C 
BRANCH  16  17
HETATM   17  C   UNL     1      39.267   7.067 -11.515  1.00  0.00    -0.027 C 
HETATM   18  C   UNL     1      38.773   7.103 -10.265  1.00  0.00    -0.030 C 
BRANCH  18  19
HETATM   19  C   UNL     1      38.133   8.311  -9.628  1.00  0.00     0.027 C 
BRANCH  19  20
HETATM   20  C   UNL     1      38.752   8.553  -8.247  1.00  0.00     0.004 C 
BRANCH  20  21
HETATM   21  C   UNL     1      39.307   7.254  -7.653  1.00  0.00    -0.000 C 
BRANCH  21  22
HETATM   22  C   UNL     1      39.670   7.440  -6.175  1.00  0.00    -0.005 C 
HETATM   23  C   UNL     1      38.515   7.026  -5.268  1.00  0.00     0.005 C 
ENDBRANCH  21  22
ENDBRANCH  20  21
ENDBRANCH  19  20
ENDBRANCH  18  19
ENDBRANCH  16  17
ENDBRANCH  15  16
ENDBRANCH  13  14
ENDBRANCH  12  13
ENDBRANCH  10  11
ENDBRANCH   9  10
ENDBRANCH   7   8
ENDBRANCH   6   7
ENDBRANCH   5   6
ENDBRANCH   3   5
ENDBRANCH   1   3
TORSDOF 15
ENDMDL
MODEL 16
REMARK VINA RESULT:      -4.5     24.637     26.585
REMARK  15 active torsions:
REMARK  status: ('A' for Active; 'I' for Inactive)
REMARK    1  A    between atoms: O_1  and  C_22 
REMARK    2  A    between atoms: C_3  and  C_4 
REMARK    3  A    between atoms: C_3  and  C_5 
REMARK    4  A    between atoms: C_4  and  C_6 
REMARK    5  A    between atoms: C_5  and  C_7 
REMARK    6  A    between atoms: C_9  and  C_10 
REMARK    7  A    between atoms: C_9  and  C_13 
REMARK    8  A    between atoms: C_10  and  C_14 
REMARK    9  A    between atoms: C_11  and  C_12 
REMARK   10  A    between atoms: C_12  and  C_16 
REMARK   11  A    between atoms: C_13  and  C_22 
REMARK   12  A    between atoms: C_15  and  C_17 
REMARK   13  A    between atoms: C_15  and  C_20 
REMARK   14  A    between atoms: C_18  and  C_19 
REMARK   15  A    between atoms: C_18  and  C_21 
ROOT
HETATM    1  O   UNL     1      31.096 -21.252 -10.452  1.00  0.00    -0.776 OA
HETATM    2  H   UNL     1      31.679 -20.956 -11.165  1.00  0.00     0.167 HD
ENDROOT
BRANCH   1   3
HETATM    3  C   UNL     1      30.643 -20.395  -9.512  1.00  0.00     0.139 C 
HETATM    4  O   UNL     1      29.910 -20.795  -8.620  1.00  0.00    -0.650 OA
BRANCH   3   5
HETATM    5  C   UNL     1      31.035 -18.944  -9.573  1.00  0.00     0.110 C 
BRANCH   5   6
HETATM    6  C   UNL     1      30.414 -18.222 -10.777  1.00  0.00     0.014 C 
BRANCH   6   7
HETATM    7  C   UNL     1      30.764 -16.728 -10.816  1.00  0.00     0.027 C 
BRANCH   7   8
HETATM    8  C   UNL     1      29.777 -15.998 -11.691  1.00  0.00    -0.030 C 
HETATM    9  C   UNL     1      28.854 -15.120 -11.255  1.00  0.00    -0.027 C 
BRANCH   9  10
HETATM   10  C   UNL     1      28.661 -14.694  -9.821  1.00  0.00     0.053 C 
BRANCH  10  11
HETATM   11  C   UNL     1      28.719 -13.188  -9.684  1.00  0.00    -0.027 C 
HETATM   12  C   UNL     1      29.819 -12.419  -9.547  1.00  0.00    -0.027 C 
BRANCH  12  13
HETATM   13  C   UNL     1      31.253 -12.883  -9.519  1.00  0.00     0.053 C 
BRANCH  13  14
HETATM   14  C   UNL     1      31.783 -12.837  -8.105  1.00  0.00    -0.027 C 
HETATM   15  C   UNL     1      31.993 -13.916  -7.323  1.00  0.00    -0.027 C 
BRANCH  15  16
HETATM   16  C   UNL     1      31.713 -15.337  -7.735  1.00  0.00     0.053 C 
BRANCH  16  17
HETATM   17  C   UNL     1      31.358 -16.198  -6.548  1.00  0.00    -0.027 C 
HETATM   18  C   UNL     1      30.164 -16.167  -5.930  1.00  0.00    -0.030 C 
BRANCH  18  19
HETATM   19  C   UNL     1      29.017 -15.270  -6.319  1.00  0.00     0.027 C 
BRANCH  19  20
HETATM   20  C   UNL     1      28.437 -14.604  -5.067  1.00  0.00     0.004 C 
BRANCH  20  21
HETATM   21  C   UNL     1      27.695 -13.311  -5.419  1.00  0.00    -0.000 C 
BRANCH  21  22
HETATM   22  C   UNL     1      28.637 -12.307  -6.096  1.00  0.00    -0.005 C 
HETATM   23  C   UNL     1      29.666 -11.766  -5.109  1.00  0.00     0.005 C 
ENDBRANCH  21  22
ENDBRANCH  20  21
ENDBRANCH  19  20
ENDBRANCH  18  19
ENDBRANCH  16  17
ENDBRANCH  15  16
ENDBRANCH  13  14
ENDBRANCH  12  13
ENDBRANCH  10  11
ENDBRANCH   9  10
ENDBRANCH   7   8
ENDBRANCH   6   7
ENDBRANCH   5   6
ENDBRANCH   3   5
ENDBRANCH   1   3
TORSDOF 15
ENDMDL
MODEL 17
REMARK VINA RESULT:      -4.5      5.645     11.465
REMARK  15 active torsions:
REMARK  status: ('A' for Active; 'I' for Inactive)
REMARK    1  A    between atoms: O_1  and  C_22 
REMARK    2  A    between atoms: C_3  and  C_4 
REMARK    3  A    between atoms: C_3  and  C_5 
REMARK    4  A    between atoms: C_4  and  C_6 
REMARK    5  A    between atoms: C_5  and  C_7 
REMARK    6  A    between atoms: C_9  and  C_10 
REMARK    7  A    between atoms: C_9  and  C_13 
REMARK    8  A    between atoms: C_10  and  C_14 
REMARK    9  A    between atoms: C_11  and  C_12 
REMARK   10  A    between atoms: C_12  and  C_16 
REMARK   11  A    between atoms: C_13  and  C_22 
REMARK   12  A    between atoms: C_15  and  C_17 
REMARK   13  A    between atoms: C_15  and  C_20 
REMARK   14  A    between atoms: C_18  and  C_19 
REMARK   15  A    between atoms: C_18  and  C_21 
ROOT
HETATM    1  O   UNL     1      39.799  10.210 -13.070  1.00  0.00    -0.776 OA
HETATM    2  H   UNL     1      40.493  10.869 -13.207  1.00  0.00     0.167 HD
ENDROOT
BRANCH   1   3
HETATM    3  C   UNL     1      40.063   9.023 -12.484  1.00  0.00     0.139 C 
HETATM    4  O   UNL     1      40.698   8.983 -11.440  1.00  0.00    -0.650 OA
BRANCH   3   5
HETATM    5  C   UNL     1      39.584   7.749 -13.125  1.00  0.00     0.110 C 
BRANCH   5   6
HETATM    6  C   UNL     1      40.191   7.532 -14.518  1.00  0.00     0.014 C 
BRANCH   6   7
HETATM    7  C   UNL     1      39.126   7.318 -15.601  1.00  0.00     0.027 C 
BRANCH   7   8
HETATM    8  C   UNL     1      37.851   8.020 -15.206  1.00  0.00    -0.030 C 
HETATM    9  C   UNL     1      37.333   9.097 -15.826  1.00  0.00    -0.027 C 
BRANCH   9  10
HETATM   10  C   UNL     1      37.922   9.776 -17.037  1.00  0.00     0.053 C 
BRANCH  10  11
HETATM   11  C   UNL     1      38.461  11.146 -16.689  1.00  0.00    -0.027 C 
HETATM   12  C   UNL     1      39.740  11.482 -16.424  1.00  0.00    -0.027 C 
BRANCH  12  13
HETATM   13  C   UNL     1      40.938  10.567 -16.432  1.00  0.00     0.053 C 
BRANCH  13  14
HETATM   14  C   UNL     1      41.889  10.971 -17.534  1.00  0.00    -0.027 C 
HETATM   15  C   UNL     1      41.772  10.609 -18.828  1.00  0.00    -0.027 C 
BRANCH  15  16
HETATM   16  C   UNL     1      40.678   9.729 -19.372  1.00  0.00     0.053 C 
BRANCH  16  17
HETATM   17  C   UNL     1      40.788   8.320 -18.845  1.00  0.00    -0.027 C 
HETATM   18  C   UNL     1      39.978   7.314 -19.219  1.00  0.00    -0.030 C 
BRANCH  18  19
HETATM   19  C   UNL     1      38.843   7.444 -20.203  1.00  0.00     0.027 C 
BRANCH  19  20
HETATM   20  C   UNL     1      39.333   7.072 -21.606  1.00  0.00     0.004 C 
BRANCH  20  21
HETATM   21  C   UNL     1      38.946   8.144 -22.631  1.00  0.00    -0.000 C 
BRANCH  21  22
HETATM   22  C   UNL     1      38.932   7.563 -24.050  1.00  0.00    -0.005 C 
HETATM   23  C   UNL     1      38.085   8.419 -24.987  1.00  0.00     0.005 C 
ENDBRANCH  21  22
ENDBRANCH  20  21
ENDBRANCH  19  20
ENDBRANCH  18  19
ENDBRANCH  16  17
ENDBRANCH  15  16
ENDBRANCH  13  14
ENDBRANCH  12  13
ENDBRANCH  10  11
ENDBRANCH   9  10
ENDBRANCH   7   8
ENDBRANCH   6   7
ENDBRANCH   5   6
ENDBRANCH   3   5
ENDBRANCH   1   3
TORSDOF 15
ENDMDL
MODEL 18
REMARK VINA RESULT:      -4.5      3.912      7.758
REMARK  15 active torsions:
REMARK  status: ('A' for Active; 'I' for Inactive)
REMARK    1  A    between atoms: O_1  and  C_22 
REMARK    2  A    between atoms: C_3  and  C_4 
REMARK    3  A    between atoms: C_3  and  C_5 
REMARK    4  A    between atoms: C_4  and  C_6 
REMARK    5  A    between atoms: C_5  and  C_7 
REMARK    6  A    between atoms: C_9  and  C_10 
REMARK    7  A    between atoms: C_9  and  C_13 
REMARK    8  A    between atoms: C_10  and  C_14 
REMARK    9  A    between atoms: C_11  and  C_12 
REMARK   10  A    between atoms: C_12  and  C_16 
REMARK   11  A    between atoms: C_13  and  C_22 
REMARK   12  A    between atoms: C_15  and  C_17 
REMARK   13  A    between atoms: C_15  and  C_20 
REMARK   14  A    between atoms: C_18  and  C_19 
REMARK   15  A    between atoms: C_18  and  C_21 
ROOT
HETATM    1  O   UNL     1      43.124  14.144  -7.961  1.00  0.00    -0.776 OA
HETATM    2  H   UNL     1      44.004  13.816  -8.192  1.00  0.00     0.167 HD
ENDROOT
BRANCH   1   3
HETATM    3  C   UNL     1      42.102  13.298  -7.711  1.00  0.00     0.139 C 
HETATM    4  O   UNL     1      41.000  13.738  -7.418  1.00  0.00    -0.650 OA
BRANCH   3   5
HETATM    5  C   UNL     1      42.326  11.812  -7.782  1.00  0.00     0.110 C 
BRANCH   5   6
HETATM    6  C   UNL     1      41.149  11.074  -8.435  1.00  0.00     0.014 C 
BRANCH   6   7
HETATM    7  C   UNL     1      41.486   9.621  -8.791  1.00  0.00     0.027 C 
BRANCH   7   8
HETATM    8  C   UNL     1      40.616   8.686  -7.988  1.00  0.00    -0.030 C 
HETATM    9  C   UNL     1      39.831   7.722  -8.503  1.00  0.00    -0.027 C 
BRANCH   9  10
HETATM   10  C   UNL     1      39.700   7.390  -9.969  1.00  0.00     0.053 C 
BRANCH  10  11
HETATM   11  C   UNL     1      38.265   7.508 -10.432  1.00  0.00    -0.027 C 
HETATM   12  C   UNL     1      37.559   8.638 -10.635  1.00  0.00    -0.027 C 
BRANCH  12  13
HETATM   13  C   UNL     1      38.045  10.055 -10.466  1.00  0.00     0.053 C 
BRANCH  13  14
HETATM   14  C   UNL     1      38.070  10.757 -11.803  1.00  0.00    -0.027 C 
HETATM   15  C   UNL     1      39.137  10.814 -12.627  1.00  0.00    -0.027 C 
BRANCH  15  16
HETATM   16  C   UNL     1      40.479  10.198 -12.330  1.00  0.00     0.053 C 
BRANCH  16  17
HETATM   17  C   UNL     1      41.164   9.732 -13.590  1.00  0.00    -0.027 C 
HETATM   18  C   UNL     1      40.941   8.539 -14.168  1.00  0.00    -0.030 C 
BRANCH  18  19
HETATM   19  C   UNL     1      39.990   7.493 -13.642  1.00  0.00     0.027 C 
BRANCH  19  20
HETATM   20  C   UNL     1      38.695   7.516 -14.461  1.00  0.00     0.004 C 
BRANCH  20  21
HETATM   21  C   UNL     1      38.990   7.611 -15.962  1.00  0.00    -0.000 C 
BRANCH  21  22
HETATM   22  C   UNL     1      38.207   8.764 -16.601  1.00  0.00    -0.005 C 
HETATM   23  C   UNL     1      37.327   9.468 -15.573  1.00  0.00     0.005 C 
ENDBRANCH  21  22
ENDBRANCH  20  21
ENDBRANCH  19  20
ENDBRANCH  18  19
ENDBRANCH  16  17
ENDBRANCH  15  16
ENDBRANCH  13  14
ENDBRANCH  12  13
ENDBRANCH  10  11
ENDBRANCH   9  10
ENDBRANCH   7   8
ENDBRANCH   6   7
ENDBRANCH   5   6
ENDBRANCH   3   5
ENDBRANCH   1   3
TORSDOF 15
ENDMDL
MODEL 19
REMARK VINA RESULT:      -4.5      3.667      7.003
REMARK  15 active torsions:
REMARK  status: ('A' for Active; 'I' for Inactive)
REMARK    1  A    between atoms: O_1  and  C_22 
REMARK    2  A    between atoms: C_3  and  C_4 
REMARK    3  A    between atoms: C_3  and  C_5 
REMARK    4  A    between atoms: C_4  and  C_6 
REMARK    5  A    between atoms: C_5  and  C_7 
REMARK    6  A    between atoms: C_9  and  C_10 
REMARK    7  A    between atoms: C_9  and  C_13 
REMARK    8  A    between atoms: C_10  and  C_14 
REMARK    9  A    between atoms: C_11  and  C_12 
REMARK   10  A    between atoms: C_12  and  C_16 
REMARK   11  A    between atoms: C_13  and  C_22 
REMARK   12  A    between atoms: C_15  and  C_17 
REMARK   13  A    between atoms: C_15  and  C_20 
REMARK   14  A    between atoms: C_18  and  C_19 
REMARK   15  A    between atoms: C_18  and  C_21 
ROOT
HETATM    1  O   UNL     1      41.373  13.061 -17.781  1.00  0.00    -0.776 OA
HETATM    2  H   UNL     1      41.507  13.656 -17.030  1.00  0.00     0.167 HD
ENDROOT
BRANCH   1   3
HETATM    3  C   UNL     1      42.076  11.915 -17.903  1.00  0.00     0.139 C 
HETATM    4  O   UNL     1      43.002  11.680 -17.141  1.00  0.00    -0.650 OA
BRANCH   3   5
HETATM    5  C   UNL     1      41.723  10.934 -18.987  1.00  0.00     0.110 C 
BRANCH   5   6
HETATM    6  C   UNL     1      41.535   9.509 -18.447  1.00  0.00     0.014 C 
BRANCH   6   7
HETATM    7  C   UNL     1      40.169   9.304 -17.780  1.00  0.00     0.027 C 
BRANCH   7   8
HETATM    8  C   UNL     1      39.802   7.842 -17.811  1.00  0.00    -0.030 C 
HETATM    9  C   UNL     1      39.363   7.129 -16.756  1.00  0.00    -0.027 C 
BRANCH   9  10
HETATM   10  C   UNL     1      39.138   7.671 -15.367  1.00  0.00     0.053 C 
BRANCH  10  11
HETATM   11  C   UNL     1      40.390   7.561 -14.526  1.00  0.00    -0.027 C 
HETATM   12  C   UNL     1      41.152   8.569 -14.054  1.00  0.00    -0.027 C 
BRANCH  12  13
HETATM   13  C   UNL     1      40.918  10.047 -14.239  1.00  0.00     0.053 C 
BRANCH  13  14
HETATM   14  C   UNL     1      41.100  10.768 -12.924  1.00  0.00    -0.027 C 
HETATM   15  C   UNL     1      40.097  11.238 -12.154  1.00  0.00    -0.027 C 
BRANCH  15  16
HETATM   16  C   UNL     1      38.634  11.130 -12.499  1.00  0.00     0.053 C 
BRANCH  16  17
HETATM   17  C   UNL     1      37.824  10.642 -11.323  1.00  0.00    -0.027 C 
HETATM   18  C   UNL     1      37.613   9.343 -11.046  1.00  0.00    -0.030 C 
BRANCH  18  19
HETATM   19  C   UNL     1      38.139   8.192 -11.865  1.00  0.00     0.027 C 
BRANCH  19  20
HETATM   20  C   UNL     1      39.044   7.313 -10.997  1.00  0.00     0.004 C 
BRANCH  20  21
HETATM   21  C   UNL     1      38.991   7.743  -9.527  1.00  0.00    -0.000 C 
BRANCH  21  22
HETATM   22  C   UNL     1      40.397   7.783  -8.918  1.00  0.00    -0.005 C 
HETATM   23  C   UNL     1      41.148   9.040  -9.346  1.00  0.00     0.005 C 
ENDBRANCH  21  22
ENDBRANCH  20  21
ENDBRANCH  19  20
ENDBRANCH  18  19
ENDBRANCH  16  17
ENDBRANCH  15  16
ENDBRANCH  13  14
ENDBRANCH  12  13
ENDBRANCH  10  11
ENDBRANCH   9  10
ENDBRANCH   7   8
ENDBRANCH   6   7
ENDBRANCH   5   6
ENDBRANCH   3   5
ENDBRANCH   1   3
TORSDOF 15
ENDMDL
MODEL 20
REMARK VINA RESULT:      -4.4     24.569     26.496
REMARK  15 active torsions:
REMARK  status: ('A' for Active; 'I' for Inactive)
REMARK    1  A    between atoms: O_1  and  C_22 
REMARK    2  A    between atoms: C_3  and  C_4 
REMARK    3  A    between atoms: C_3  and  C_5 
REMARK    4  A    between atoms: C_4  and  C_6 
REMARK    5  A    between atoms: C_5  and  C_7 
REMARK    6  A    between atoms: C_9  and  C_10 
REMARK    7  A    between atoms: C_9  and  C_13 
REMARK    8  A    between atoms: C_10  and  C_14 
REMARK    9  A    between atoms: C_11  and  C_12 
REMARK   10  A    between atoms: C_12  and  C_16 
REMARK   11  A    between atoms: C_13  and  C_22 
REMARK   12  A    between atoms: C_15  and  C_17 
REMARK   13  A    between atoms: C_15  and  C_20 
REMARK   14  A    between atoms: C_18  and  C_19 
REMARK   15  A    between atoms: C_18  and  C_21 
ROOT
HETATM    1  O   UNL     1      30.702 -19.966  -7.345  1.00  0.00    -0.776 OA
HETATM    2  H   UNL     1      30.959 -19.241  -6.758  1.00  0.00     0.167 HD
ENDROOT
BRANCH   1   3
HETATM    3  C   UNL     1      31.007 -19.948  -8.660  1.00  0.00     0.139 C 
HETATM    4  O   UNL     1      32.120 -20.287  -9.035  1.00  0.00    -0.650 OA
BRANCH   3   5
HETATM    5  C   UNL     1      29.977 -19.499  -9.660  1.00  0.00     0.110 C 
BRANCH   5   6
HETATM    6  C   UNL     1      30.612 -18.931 -10.937  1.00  0.00     0.014 C 
BRANCH   6   7
HETATM    7  C   UNL     1      30.259 -17.456 -11.168  1.00  0.00     0.027 C 
BRANCH   7   8
HETATM    8  C   UNL     1      31.242 -16.577 -10.436  1.00  0.00    -0.030 C 
HETATM    9  C   UNL     1      30.998 -15.936  -9.278  1.00  0.00    -0.027 C 
BRANCH   9  10
HETATM   10  C   UNL     1      29.710 -16.001  -8.497  1.00  0.00     0.053 C 
BRANCH  10  11
HETATM   11  C   UNL     1      29.974 -16.115  -7.012  1.00  0.00    -0.027 C 
HETATM   12  C   UNL     1      29.314 -15.498  -6.011  1.00  0.00    -0.027 C 
BRANCH  12  13
HETATM   13  C   UNL     1      28.139 -14.562  -6.141  1.00  0.00     0.053 C 
BRANCH  13  14
HETATM   14  C   UNL     1      28.505 -13.197  -5.607  1.00  0.00    -0.027 C 
HETATM   15  C   UNL     1      29.061 -12.206  -6.333  1.00  0.00    -0.027 C 
BRANCH  15  16
HETATM   16  C   UNL     1      29.419 -12.314  -7.792  1.00  0.00     0.053 C 
BRANCH  16  17
HETATM   17  C   UNL     1      30.907 -12.466  -7.986  1.00  0.00    -0.027 C 
HETATM   18  C   UNL     1      31.542 -12.217  -9.145  1.00  0.00    -0.030 C 
BRANCH  18  19
HETATM   19  C   UNL     1      30.867 -11.766 -10.415  1.00  0.00     0.027 C 
BRANCH  19  20
HETATM   20  C   UNL     1      30.857 -12.915 -11.429  1.00  0.00     0.004 C 
BRANCH  20  21
HETATM   21  C   UNL     1      29.521 -12.986 -12.175  1.00  0.00    -0.000 C 
BRANCH  21  22
HETATM   22  C   UNL     1      28.628 -14.088 -11.592  1.00  0.00    -0.005 C 
HETATM   23  C   UNL     1      27.582 -13.507 -10.645  1.00  0.00     0.005 C 
ENDBRANCH  21  22
ENDBRANCH  20  21
ENDBRANCH  19  20
ENDBRANCH  18  19
ENDBRANCH  16  17
ENDBRANCH  15  16
ENDBRANCH  13  14
ENDBRANCH  12  13
ENDBRANCH  10  11
ENDBRANCH   9  10
ENDBRANCH   7   8
ENDBRANCH   6   7
ENDBRANCH   5   6
ENDBRANCH   3   5
ENDBRANCH   1   3
TORSDOF 15
ENDMDL
