MODEL 1
REMARK VINA RESULT:      -4.9      0.000      0.000
REMARK  16 active torsions:
REMARK  status: ('A' for Active; 'I' for Inactive)
REMARK    1  A    between atoms: O_1  and  C_20 
REMARK    2  A    between atoms: C_3  and  C_4 
REMARK    3  A    between atoms: C_3  and  C_5 
REMARK    4  A    between atoms: C_4  and  C_8 
REMARK    5  A    between atoms: C_5  and  C_11 
REMARK    6  A    between atoms: C_6  and  C_7 
REMARK    7  A    between atoms: C_6  and  C_9 
REMARK    8  A    between atoms: C_7  and  C_10 
REMARK    9  A    between atoms: C_8  and  C_12 
REMARK   10  A    between atoms: C_9  and  C_13 
REMARK   11  A    between atoms: C_10  and  C_14 
REMARK   12  A    between atoms: C_11  and  C_15 
REMARK   13  A    between atoms: C_12  and  C_16 
REMARK   14  A    between atoms: C_13  and  C_17 
REMARK   15  A    between atoms: C_14  and  C_18 
REMARK   16  A    between atoms: C_18  and  C_20 
ROOT
HETATM    1  O   UNL     1      39.518   7.306  -4.432  1.00  0.00    -0.776 OA
HETATM    2  H   UNL     1      40.181   6.803  -3.938  1.00  0.00     0.167 HD
ENDROOT
BRANCH   1   3
HETATM    3  C   UNL     1      39.644   7.525  -5.757  1.00  0.00     0.139 C 
HETATM    4  O   UNL     1      39.509   6.596  -6.542  1.00  0.00    -0.650 OA
BRANCH   3   5
HETATM    5  C   UNL     1      39.949   8.918  -6.242  1.00  0.00     0.110 C 
BRANCH   5   6
HETATM    6  C   UNL     1      39.672   9.109  -7.740  1.00  0.00     0.010 C 
BRANCH   6   7
HETATM    7  C   UNL     1      40.975   9.080  -8.548  1.00  0.00     0.001 C 
BRANCH   7   8
HETATM    8  C   UNL     1      40.793   8.296  -9.852  1.00  0.00     0.000 C 
BRANCH   8   9
HETATM    9  C   UNL     1      39.478   7.508  -9.842  1.00  0.00     0.000 C 
BRANCH   9  10
HETATM   10  C   UNL     1      38.710   7.717 -11.151  1.00  0.00     0.004 C 
BRANCH  10  11
HETATM   11  C   UNL     1      39.636   8.198 -12.271  1.00  0.00     0.027 C 
BRANCH  11  12
HETATM   12  C   UNL     1      39.520   7.265 -13.453  1.00  0.00    -0.031 C 
HETATM   13  C   UNL     1      38.756   7.444 -14.550  1.00  0.00    -0.031 C 
BRANCH  13  14
HETATM   14  C   UNL     1      37.838   8.613 -14.842  1.00  0.00     0.027 C 
BRANCH  14  15
HETATM   15  C   UNL     1      37.995   9.094 -16.295  1.00  0.00     0.004 C 
BRANCH  15  16
HETATM   16  C   UNL     1      39.423   8.953 -16.861  1.00  0.00     0.000 C 
BRANCH  16  17
HETATM   17  C   UNL     1      39.456   8.809 -18.392  1.00  0.00     0.000 C 
BRANCH  17  18
HETATM   18  C   UNL     1      39.383   7.335 -18.810  1.00  0.00     0.000 C 
BRANCH  18  19
HETATM   19  C   UNL     1      38.518   7.162 -20.064  1.00  0.00    -0.000 C 
BRANCH  19  20
HETATM   20  C   UNL     1      37.674   8.414 -20.330  1.00  0.00    -0.005 C 
HETATM   21  C   UNL     1      37.904   8.943 -21.742  1.00  0.00     0.005 C 
ENDBRANCH  19  20
ENDBRANCH  18  19
ENDBRANCH  17  18
ENDBRANCH  16  17
ENDBRANCH  15  16
ENDBRANCH  14  15
ENDBRANCH  13  14
ENDBRANCH  11  12
ENDBRANCH  10  11
ENDBRANCH   9  10
ENDBRANCH   8   9
ENDBRANCH   7   8
ENDBRANCH   6   7
ENDBRANCH   5   6
ENDBRANCH   3   5
ENDBRANCH   1   3
TORSDOF 16
ENDMDL
MODEL 2
REMARK VINA RESULT:      -4.8     25.775     27.095
REMARK  16 active torsions:
REMARK  status: ('A' for Active; 'I' for Inactive)
REMARK    1  A    between atoms: O_1  and  C_20 
REMARK    2  A    between atoms: C_3  and  C_4 
REMARK    3  A    between atoms: C_3  and  C_5 
REMARK    4  A    between atoms: C_4  and  C_8 
REMARK    5  A    between atoms: C_5  and  C_11 
REMARK    6  A    between atoms: C_6  and  C_7 
REMARK    7  A    between atoms: C_6  and  C_9 
REMARK    8  A    between atoms: C_7  and  C_10 
REMARK    9  A    between atoms: C_8  and  C_12 
REMARK   10  A    between atoms: C_9  and  C_13 
REMARK   11  A    between atoms: C_10  and  C_14 
REMARK   12  A    between atoms: C_11  and  C_15 
REMARK   13  A    between atoms: C_12  and  C_16 
REMARK   14  A    between atoms: C_13  and  C_17 
REMARK   15  A    between atoms: C_14  and  C_18 
REMARK   16  A    between atoms: C_18  and  C_20 
ROOT
HETATM    1  O   UNL     1      32.535 -20.484 -14.691  1.00  0.00    -0.776 OA
HETATM    2  H   UNL     1      32.840 -19.781 -14.099  1.00  0.00     0.167 HD
ENDROOT
BRANCH   1   3
HETATM    3  C   UNL     1      31.227 -20.643 -14.982  1.00  0.00     0.139 C 
HETATM    4  O   UNL     1      30.890 -20.944 -16.119  1.00  0.00    -0.650 OA
BRANCH   3   5
HETATM    5  C   UNL     1      30.207 -20.445 -13.892  1.00  0.00     0.110 C 
BRANCH   5   6
HETATM    6  C   UNL     1      30.834 -20.096 -12.535  1.00  0.00     0.010 C 
BRANCH   6   7
HETATM    7  C   UNL     1      30.509 -18.651 -12.136  1.00  0.00     0.001 C 
BRANCH   7   8
HETATM    8  C   UNL     1      29.906 -17.880 -13.315  1.00  0.00     0.000 C 
BRANCH   8   9
HETATM    9  C   UNL     1      30.403 -16.429 -13.337  1.00  0.00     0.000 C 
BRANCH   9  10
HETATM   10  C   UNL     1      30.456 -15.895 -14.773  1.00  0.00     0.004 C 
BRANCH  10  11
HETATM   11  C   UNL     1      31.202 -16.859 -15.700  1.00  0.00     0.027 C 
BRANCH  11  12
HETATM   12  C   UNL     1      30.236 -17.431 -16.710  1.00  0.00    -0.031 C 
HETATM   13  C   UNL     1      29.930 -16.913 -17.916  1.00  0.00    -0.031 C 
BRANCH  13  14
HETATM   14  C   UNL     1      30.476 -15.639 -18.527  1.00  0.00     0.027 C 
BRANCH  14  15
HETATM   15  C   UNL     1      29.359 -14.603 -18.743  1.00  0.00     0.004 C 
BRANCH  15  16
HETATM   16  C   UNL     1      29.122 -13.663 -17.544  1.00  0.00     0.000 C 
BRANCH  16  17
HETATM   17  C   UNL     1      27.851 -14.004 -16.749  1.00  0.00     0.000 C 
BRANCH  17  18
HETATM   18  C   UNL     1      27.660 -13.040 -15.570  1.00  0.00     0.000 C 
BRANCH  18  19
HETATM   19  C   UNL     1      28.857 -12.090 -15.439  1.00  0.00    -0.000 C 
BRANCH  19  20
HETATM   20  C   UNL     1      29.530 -12.237 -14.069  1.00  0.00    -0.005 C 
HETATM   21  C   UNL     1      28.702 -13.118 -13.140  1.00  0.00     0.005 C 
ENDBRANCH  19  20
ENDBRANCH  18  19
ENDBRANCH  17  18
ENDBRANCH  16  17
ENDBRANCH  15  16
ENDBRANCH  14  15
ENDBRANCH  13  14
ENDBRANCH  11  12
ENDBRANCH  10  11
ENDBRANCH   9  10
ENDBRANCH   8   9
ENDBRANCH   7   8
ENDBRANCH   6   7
ENDBRANCH   5   6
ENDBRANCH   3   5
ENDBRANCH   1   3
TORSDOF 16
ENDMDL
MODEL 3
REMARK VINA RESULT:      -4.8     26.326     27.714
REMARK  16 active torsions:
REMARK  status: ('A' for Active; 'I' for Inactive)
REMARK    1  A    between atoms: O_1  and  C_20 
REMARK    2  A    between atoms: C_3  and  C_4 
REMARK    3  A    between atoms: C_3  and  C_5 
REMARK    4  A    between atoms: C_4  and  C_8 
REMARK    5  A    between atoms: C_5  and  C_11 
REMARK    6  A    between atoms: C_6  and  C_7 
REMARK    7  A    between atoms: C_6  and  C_9 
REMARK    8  A    between atoms: C_7  and  C_10 
REMARK    9  A    between atoms: C_8  and  C_12 
REMARK   10  A    between atoms: C_9  and  C_13 
REMARK   11  A    between atoms: C_10  and  C_14 
REMARK   12  A    between atoms: C_11  and  C_15 
REMARK   13  A    between atoms: C_12  and  C_16 
REMARK   14  A    between atoms: C_13  and  C_17 
REMARK   15  A    between atoms: C_14  and  C_18 
REMARK   16  A    between atoms: C_18  and  C_20 
ROOT
HETATM    1  O   UNL     1      32.690 -20.296 -14.244  1.00  0.00    -0.776 OA
HETATM    2  H   UNL     1      32.838 -20.082 -13.311  1.00  0.00     0.167 HD
ENDROOT
BRANCH   1   3
HETATM    3  C   UNL     1      31.446 -20.404 -14.754  1.00  0.00     0.139 C 
HETATM    4  O   UNL     1      31.282 -20.914 -15.854  1.00  0.00    -0.650 OA
BRANCH   3   5
HETATM    5  C   UNL     1      30.279 -19.892 -13.950  1.00  0.00     0.110 C 
BRANCH   5   6
HETATM    6  C   UNL     1      30.692 -19.314 -12.589  1.00  0.00     0.010 C 
BRANCH   6   7
HETATM    7  C   UNL     1      30.582 -20.374 -11.486  1.00  0.00     0.001 C 
BRANCH   7   8
HETATM    8  C   UNL     1      31.251 -19.891 -10.195  1.00  0.00     0.000 C 
BRANCH   8   9
HETATM    9  C   UNL     1      30.538 -20.455  -8.960  1.00  0.00     0.000 C 
BRANCH   9  10
HETATM   10  C   UNL     1      30.334 -19.363  -7.905  1.00  0.00     0.004 C 
BRANCH  10  11
HETATM   11  C   UNL     1      31.065 -18.074  -8.287  1.00  0.00     0.027 C 
BRANCH  11  12
HETATM   12  C   UNL     1      30.103 -16.912  -8.217  1.00  0.00    -0.031 C 
HETATM   13  C   UNL     1      29.625 -16.198  -9.257  1.00  0.00    -0.031 C 
BRANCH  13  14
HETATM   14  C   UNL     1      29.950 -16.391 -10.723  1.00  0.00     0.027 C 
BRANCH  14  15
HETATM   15  C   UNL     1      31.019 -15.390 -11.193  1.00  0.00     0.004 C 
BRANCH  15  16
HETATM   16  C   UNL     1      30.661 -14.640 -12.493  1.00  0.00     0.000 C 
BRANCH  16  17
HETATM   17  C   UNL     1      30.660 -13.111 -12.331  1.00  0.00     0.000 C 
BRANCH  17  18
HETATM   18  C   UNL     1      29.229 -12.558 -12.319  1.00  0.00     0.000 C 
BRANCH  18  19
HETATM   19  C   UNL     1      28.954 -11.773 -11.030  1.00  0.00    -0.000 C 
BRANCH  19  20
HETATM   20  C   UNL     1      28.780 -12.718  -9.835  1.00  0.00    -0.005 C 
HETATM   21  C   UNL     1      29.833 -12.452  -8.765  1.00  0.00     0.005 C 
ENDBRANCH  19  20
ENDBRANCH  18  19
ENDBRANCH  17  18
ENDBRANCH  16  17
ENDBRANCH  15  16
ENDBRANCH  14  15
ENDBRANCH  13  14
ENDBRANCH  11  12
ENDBRANCH  10  11
ENDBRANCH   9  10
ENDBRANCH   8   9
ENDBRANCH   7   8
ENDBRANCH   6   7
ENDBRANCH   5   6
ENDBRANCH   3   5
ENDBRANCH   1   3
TORSDOF 16
ENDMDL
MODEL 4
REMARK VINA RESULT:      -4.8     24.408     26.226
REMARK  16 active torsions:
REMARK  status: ('A' for Active; 'I' for Inactive)
REMARK    1  A    between atoms: O_1  and  C_20 
REMARK    2  A    between atoms: C_3  and  C_4 
REMARK    3  A    between atoms: C_3  and  C_5 
REMARK    4  A    between atoms: C_4  and  C_8 
REMARK    5  A    between atoms: C_5  and  C_11 
REMARK    6  A    between atoms: C_6  and  C_7 
REMARK    7  A    between atoms: C_6  and  C_9 
REMARK    8  A    between atoms: C_7  and  C_10 
REMARK    9  A    between atoms: C_8  and  C_12 
REMARK   10  A    between atoms: C_9  and  C_13 
REMARK   11  A    between atoms: C_10  and  C_14 
REMARK   12  A    between atoms: C_11  and  C_15 
REMARK   13  A    between atoms: C_12  and  C_16 
REMARK   14  A    between atoms: C_13  and  C_17 
REMARK   15  A    between atoms: C_14  and  C_18 
REMARK   16  A    between atoms: C_18  and  C_20 
ROOT
HETATM    1  O   UNL     1      32.590 -20.220 -19.039  1.00  0.00    -0.776 OA
HETATM    2  H   UNL     1      32.744 -19.594 -18.318  1.00  0.00     0.167 HD
ENDROOT
BRANCH   1   3
HETATM    3  C   UNL     1      31.352 -20.441 -19.528  1.00  0.00     0.139 C 
HETATM    4  O   UNL     1      31.216 -20.858 -20.671  1.00  0.00    -0.650 OA
BRANCH   3   5
HETATM    5  C   UNL     1      30.159 -20.168 -18.650  1.00  0.00     0.110 C 
BRANCH   5   6
HETATM    6  C   UNL     1      29.908 -18.670 -18.424  1.00  0.00     0.010 C 
BRANCH   6   7
HETATM    7  C   UNL     1      30.355 -18.244 -17.020  1.00  0.00     0.001 C 
BRANCH   7   8
HETATM    8  C   UNL     1      30.033 -16.767 -16.768  1.00  0.00     0.000 C 
BRANCH   8   9
HETATM    9  C   UNL     1      31.267 -16.013 -16.258  1.00  0.00     0.000 C 
BRANCH   9  10
HETATM   10  C   UNL     1      31.349 -14.618 -16.888  1.00  0.00     0.004 C 
BRANCH  10  11
HETATM   11  C   UNL     1      30.085 -14.290 -17.686  1.00  0.00     0.027 C 
BRANCH  11  12
HETATM   12  C   UNL     1      29.658 -12.872 -17.389  1.00  0.00    -0.031 C 
HETATM   13  C   UNL     1      28.810 -12.471 -16.421  1.00  0.00    -0.031 C 
BRANCH  13  14
HETATM   14  C   UNL     1      28.089 -13.348 -15.419  1.00  0.00     0.027 C 
BRANCH  14  15
HETATM   15  C   UNL     1      28.965 -13.615 -14.182  1.00  0.00     0.004 C 
BRANCH  15  16
HETATM   16  C   UNL     1      29.920 -12.461 -13.816  1.00  0.00     0.000 C 
BRANCH  16  17
HETATM   17  C   UNL     1      31.360 -12.928 -13.546  1.00  0.00     0.000 C 
BRANCH  17  18
HETATM   18  C   UNL     1      32.375 -11.845 -13.936  1.00  0.00     0.000 C 
BRANCH  18  19
HETATM   19  C   UNL     1      31.869 -11.020 -15.126  1.00  0.00    -0.000 C 
BRANCH  19  20
HETATM   20  C   UNL     1      32.810 -11.153 -16.329  1.00  0.00    -0.005 C 
HETATM   21  C   UNL     1      34.137 -10.446 -16.071  1.00  0.00     0.005 C 
ENDBRANCH  19  20
ENDBRANCH  18  19
ENDBRANCH  17  18
ENDBRANCH  16  17
ENDBRANCH  15  16
ENDBRANCH  14  15
ENDBRANCH  13  14
ENDBRANCH  11  12
ENDBRANCH  10  11
ENDBRANCH   9  10
ENDBRANCH   8   9
ENDBRANCH   7   8
ENDBRANCH   6   7
ENDBRANCH   5   6
ENDBRANCH   3   5
ENDBRANCH   1   3
TORSDOF 16
ENDMDL
MODEL 5
REMARK VINA RESULT:      -4.7      4.227     10.685
REMARK  16 active torsions:
REMARK  status: ('A' for Active; 'I' for Inactive)
REMARK    1  A    between atoms: O_1  and  C_20 
REMARK    2  A    between atoms: C_3  and  C_4 
REMARK    3  A    between atoms: C_3  and  C_5 
REMARK    4  A    between atoms: C_4  and  C_8 
REMARK    5  A    between atoms: C_5  and  C_11 
REMARK    6  A    between atoms: C_6  and  C_7 
REMARK    7  A    between atoms: C_6  and  C_9 
REMARK    8  A    between atoms: C_7  and  C_10 
REMARK    9  A    between atoms: C_8  and  C_12 
REMARK   10  A    between atoms: C_9  and  C_13 
REMARK   11  A    between atoms: C_10  and  C_14 
REMARK   12  A    between atoms: C_11  and  C_15 
REMARK   13  A    between atoms: C_12  and  C_16 
REMARK   14  A    between atoms: C_13  and  C_17 
REMARK   15  A    between atoms: C_14  and  C_18 
REMARK   16  A    between atoms: C_18  and  C_20 
ROOT
HETATM    1  O   UNL     1      40.791   9.096 -17.335  1.00  0.00    -0.776 OA
HETATM    2  H   UNL     1      41.705   9.335 -17.545  1.00  0.00     0.167 HD
ENDROOT
BRANCH   1   3
HETATM    3  C   UNL     1      40.122   8.170 -18.053  1.00  0.00     0.139 C 
HETATM    4  O   UNL     1      40.470   7.922 -19.199  1.00  0.00    -0.650 OA
BRANCH   3   5
HETATM    5  C   UNL     1      38.954   7.458 -17.421  1.00  0.00     0.110 C 
BRANCH   5   6
HETATM    6  C   UNL     1      39.314   6.766 -16.099  1.00  0.00     0.010 C 
BRANCH   6   7
HETATM    7  C   UNL     1      38.480   7.327 -14.940  1.00  0.00     0.001 C 
BRANCH   7   8
HETATM    8  C   UNL     1      39.203   8.496 -14.262  1.00  0.00     0.000 C 
BRANCH   8   9
HETATM    9  C   UNL     1      39.520   8.173 -12.797  1.00  0.00     0.000 C 
BRANCH   9  10
HETATM   10  C   UNL     1      39.127   9.341 -11.886  1.00  0.00     0.004 C 
BRANCH  10  11
HETATM   11  C   UNL     1      37.986   8.953 -10.942  1.00  0.00     0.027 C 
BRANCH  11  12
HETATM   12  C   UNL     1      38.196   7.539 -10.456  1.00  0.00    -0.031 C 
HETATM   13  C   UNL     1      39.149   7.113  -9.602  1.00  0.00    -0.031 C 
BRANCH  13  14
HETATM   14  C   UNL     1      40.226   7.951  -8.945  1.00  0.00     0.027 C 
BRANCH  14  15
HETATM   15  C   UNL     1      39.945   8.142  -7.444  1.00  0.00     0.004 C 
BRANCH  15  16
HETATM   16  C   UNL     1      39.103   9.390  -7.109  1.00  0.00     0.000 C 
BRANCH  16  17
HETATM   17  C   UNL     1      37.727   9.050  -6.513  1.00  0.00     0.000 C 
BRANCH  17  18
HETATM   18  C   UNL     1      37.833   7.912  -5.490  1.00  0.00     0.000 C 
BRANCH  18  19
HETATM   19  C   UNL     1      38.403   8.419  -4.160  1.00  0.00    -0.000 C 
BRANCH  19  20
HETATM   20  C   UNL     1      39.531   7.509  -3.660  1.00  0.00    -0.005 C 
HETATM   21  C   UNL     1      39.370   7.198  -2.175  1.00  0.00     0.005 C 
ENDBRANCH  19  20
ENDBRANCH  18  19
ENDBRANCH  17  18
ENDBRANCH  16  17
ENDBRANCH  15  16
ENDBRANCH  14  15
ENDBRANCH  13  14
ENDBRANCH  11  12
ENDBRANCH  10  11
ENDBRANCH   9  10
ENDBRANCH   8   9
ENDBRANCH   7   8
ENDBRANCH   6   7
ENDBRANCH   5   6
ENDBRANCH   3   5
ENDBRANCH   1   3
TORSDOF 16
ENDMDL
MODEL 6
REMARK VINA RESULT:      -4.7     25.053     26.440
REMARK  16 active torsions:
REMARK  status: ('A' for Active; 'I' for Inactive)
REMARK    1  A    between atoms: O_1  and  C_20 
REMARK    2  A    between atoms: C_3  and  C_4 
REMARK    3  A    between atoms: C_3  and  C_5 
REMARK    4  A    between atoms: C_4  and  C_8 
REMARK    5  A    between atoms: C_5  and  C_11 
REMARK    6  A    between atoms: C_6  and  C_7 
REMARK    7  A    between atoms: C_6  and  C_9 
REMARK    8  A    between atoms: C_7  and  C_10 
REMARK    9  A    between atoms: C_8  and  C_12 
REMARK   10  A    between atoms: C_9  and  C_13 
REMARK   11  A    between atoms: C_10  and  C_14 
REMARK   12  A    between atoms: C_11  and  C_15 
REMARK   13  A    between atoms: C_12  and  C_16 
REMARK   14  A    between atoms: C_13  and  C_17 
REMARK   15  A    between atoms: C_14  and  C_18 
REMARK   16  A    between atoms: C_18  and  C_20 
ROOT
HETATM    1  O   UNL     1      29.852 -21.128 -13.862  1.00  0.00    -0.776 OA
HETATM    2  H   UNL     1      30.161 -21.875 -13.330  1.00  0.00     0.167 HD
ENDROOT
BRANCH   1   3
HETATM    3  C   UNL     1      30.687 -20.452 -14.679  1.00  0.00     0.139 C 
HETATM    4  O   UNL     1      31.082 -20.975 -15.712  1.00  0.00    -0.650 OA
BRANCH   3   5
HETATM    5  C   UNL     1      31.115 -19.059 -14.296  1.00  0.00     0.110 C 
BRANCH   5   6
HETATM    6  C   UNL     1      29.997 -18.247 -13.627  1.00  0.00     0.010 C 
BRANCH   6   7
HETATM    7  C   UNL     1      30.301 -18.013 -12.142  1.00  0.00     0.001 C 
BRANCH   7   8
HETATM    8  C   UNL     1      30.985 -16.659 -11.931  1.00  0.00     0.000 C 
BRANCH   8   9
HETATM    9  C   UNL     1      31.197 -16.374 -10.439  1.00  0.00     0.000 C 
BRANCH   9  10
HETATM   10  C   UNL     1      29.869 -16.020  -9.760  1.00  0.00     0.004 C 
BRANCH  10  11
HETATM   11  C   UNL     1      30.098 -15.346  -8.404  1.00  0.00     0.027 C 
BRANCH  11  12
HETATM   12  C   UNL     1      29.187 -14.148  -8.280  1.00  0.00    -0.031 C 
HETATM   13  C   UNL     1      29.561 -12.853  -8.234  1.00  0.00    -0.031 C 
BRANCH  13  14
HETATM   14  C   UNL     1      30.972 -12.308  -8.286  1.00  0.00     0.027 C 
BRANCH  14  15
HETATM   15  C   UNL     1      31.314 -11.781  -9.691  1.00  0.00     0.004 C 
BRANCH  15  16
HETATM   16  C   UNL     1      32.081 -12.783 -10.577  1.00  0.00     0.000 C 
BRANCH  16  17
HETATM   17  C   UNL     1      31.396 -13.045 -11.929  1.00  0.00     0.000 C 
BRANCH  17  18
HETATM   18  C   UNL     1      29.966 -12.490 -11.940  1.00  0.00     0.000 C 
BRANCH  18  19
HETATM   19  C   UNL     1      29.130 -13.149 -13.044  1.00  0.00    -0.000 C 
BRANCH  19  20
HETATM   20  C   UNL     1      28.206 -14.228 -12.467  1.00  0.00    -0.005 C 
HETATM   21  C   UNL     1      27.293 -13.652 -11.389  1.00  0.00     0.005 C 
ENDBRANCH  19  20
ENDBRANCH  18  19
ENDBRANCH  17  18
ENDBRANCH  16  17
ENDBRANCH  15  16
ENDBRANCH  14  15
ENDBRANCH  13  14
ENDBRANCH  11  12
ENDBRANCH  10  11
ENDBRANCH   9  10
ENDBRANCH   8   9
ENDBRANCH   7   8
ENDBRANCH   6   7
ENDBRANCH   5   6
ENDBRANCH   3   5
ENDBRANCH   1   3
TORSDOF 16
ENDMDL
MODEL 7
REMARK VINA RESULT:      -4.7     26.104     27.549
REMARK  16 active torsions:
REMARK  status: ('A' for Active; 'I' for Inactive)
REMARK    1  A    between atoms: O_1  and  C_20 
REMARK    2  A    between atoms: C_3  and  C_4 
REMARK    3  A    between atoms: C_3  and  C_5 
REMARK    4  A    between atoms: C_4  and  C_8 
REMARK    5  A    between atoms: C_5  and  C_11 
REMARK    6  A    between atoms: C_6  and  C_7 
REMARK    7  A    between atoms: C_6  and  C_9 
REMARK    8  A    between atoms: C_7  and  C_10 
REMARK    9  A    between atoms: C_8  and  C_12 
REMARK   10  A    between atoms: C_9  and  C_13 
REMARK   11  A    between atoms: C_10  and  C_14 
REMARK   12  A    between atoms: C_11  and  C_15 
REMARK   13  A    between atoms: C_12  and  C_16 
REMARK   14  A    between atoms: C_13  and  C_17 
REMARK   15  A    between atoms: C_14  and  C_18 
REMARK   16  A    between atoms: C_18  and  C_20 
ROOT
HETATM    1  O   UNL     1      31.764 -21.034 -15.183  1.00  0.00    -0.776 OA
HETATM    2  H   UNL     1      32.719 -21.019 -15.029  1.00  0.00     0.167 HD
ENDROOT
BRANCH   1   3
HETATM    3  C   UNL     1      30.947 -20.109 -14.638  1.00  0.00     0.139 C 
HETATM    4  O   UNL     1      30.523 -19.191 -15.328  1.00  0.00    -0.650 OA
BRANCH   3   5
HETATM    5  C   UNL     1      30.573 -20.229 -13.184  1.00  0.00     0.110 C 
BRANCH   5   6
HETATM    6  C   UNL     1      30.436 -18.871 -12.482  1.00  0.00     0.010 C 
BRANCH   6   7
HETATM    7  C   UNL     1      30.526 -19.028 -10.959  1.00  0.00     0.001 C 
BRANCH   7   8
HETATM    8  C   UNL     1      31.211 -20.347 -10.585  1.00  0.00     0.000 C 
BRANCH   8   9
HETATM    9  C   UNL     1      31.558 -20.385  -9.092  1.00  0.00     0.000 C 
BRANCH   9  10
HETATM   10  C   UNL     1      30.338 -20.017  -8.241  1.00  0.00     0.004 C 
BRANCH  10  11
HETATM   11  C   UNL     1      30.716 -19.060  -7.107  1.00  0.00     0.027 C 
BRANCH  11  12
HETATM   12  C   UNL     1      30.123 -17.699  -7.381  1.00  0.00    -0.031 C 
HETATM   13  C   UNL     1      30.721 -16.673  -8.021  1.00  0.00    -0.031 C 
BRANCH  13  14
HETATM   14  C   UNL     1      32.119 -16.650  -8.600  1.00  0.00     0.027 C 
BRANCH  14  15
HETATM   15  C   UNL     1      32.742 -15.247  -8.497  1.00  0.00     0.004 C 
BRANCH  15  16
HETATM   16  C   UNL     1      33.104 -14.609  -9.854  1.00  0.00     0.000 C 
BRANCH  16  17
HETATM   17  C   UNL     1      31.927 -14.580 -10.843  1.00  0.00     0.000 C 
BRANCH  17  18
HETATM   18  C   UNL     1      31.184 -13.240 -10.780  1.00  0.00     0.000 C 
BRANCH  18  19
HETATM   19  C   UNL     1      31.553 -12.350 -11.973  1.00  0.00    -0.000 C 
BRANCH  19  20
HETATM   20  C   UNL     1      32.648 -11.346 -11.596  1.00  0.00    -0.005 C 
HETATM   21  C   UNL     1      32.419 -10.782 -10.197  1.00  0.00     0.005 C 
ENDBRANCH  19  20
ENDBRANCH  18  19
ENDBRANCH  17  18
ENDBRANCH  16  17
ENDBRANCH  15  16
ENDBRANCH  14  15
ENDBRANCH  13  14
ENDBRANCH  11  12
ENDBRANCH  10  11
ENDBRANCH   9  10
ENDBRANCH   8   9
ENDBRANCH   7   8
ENDBRANCH   6   7
ENDBRANCH   5   6
ENDBRANCH   3   5
ENDBRANCH   1   3
TORSDOF 16
ENDMDL
MODEL 8
REMARK VINA RESULT:      -4.6     24.365     26.239
REMARK  16 active torsions:
REMARK  status: ('A' for Active; 'I' for Inactive)
REMARK    1  A    between atoms: O_1  and  C_20 
REMARK    2  A    between atoms: C_3  and  C_4 
REMARK    3  A    between atoms: C_3  and  C_5 
REMARK    4  A    between atoms: C_4  and  C_8 
REMARK    5  A    between atoms: C_5  and  C_11 
REMARK    6  A    between atoms: C_6  and  C_7 
REMARK    7  A    between atoms: C_6  and  C_9 
REMARK    8  A    between atoms: C_7  and  C_10 
REMARK    9  A    between atoms: C_8  and  C_12 
REMARK   10  A    between atoms: C_9  and  C_13 
REMARK   11  A    between atoms: C_10  and  C_14 
REMARK   12  A    between atoms: C_11  and  C_15 
REMARK   13  A    between atoms: C_12  and  C_16 
REMARK   14  A    between atoms: C_13  and  C_17 
REMARK   15  A    between atoms: C_14  and  C_18 
REMARK   16  A    between atoms: C_18  and  C_20 
ROOT
HETATM    1  O   UNL     1      29.953 -20.979 -18.771  1.00  0.00    -0.776 OA
HETATM    2  H   UNL     1      29.067 -21.370 -18.782  1.00  0.00     0.167 HD
ENDROOT
BRANCH   1   3
HETATM    3  C   UNL     1      30.398 -20.268 -17.714  1.00  0.00     0.139 C 
HETATM    4  O   UNL     1      30.828 -20.851 -16.728  1.00  0.00    -0.650 OA
BRANCH   3   5
HETATM    5  C   UNL     1      30.354 -18.764 -17.774  1.00  0.00     0.110 C 
BRANCH   5   6
HETATM    6  C   UNL     1      30.314 -18.106 -16.387  1.00  0.00     0.010 C 
BRANCH   6   7
HETATM    7  C   UNL     1      30.314 -16.577 -16.504  1.00  0.00     0.001 C 
BRANCH   7   8
HETATM    8  C   UNL     1      31.604 -16.079 -17.163  1.00  0.00     0.000 C 
BRANCH   8   9
HETATM    9  C   UNL     1      31.786 -14.571 -16.951  1.00  0.00     0.000 C 
BRANCH   9  10
HETATM   10  C   UNL     1      32.080 -13.868 -18.280  1.00  0.00     0.004 C 
BRANCH  10  11
HETATM   11  C   UNL     1      31.870 -12.355 -18.169  1.00  0.00     0.027 C 
BRANCH  11  12
HETATM   12  C   UNL     1      31.855 -11.748 -19.552  1.00  0.00    -0.031 C 
HETATM   13  C   UNL     1      30.768 -11.396 -20.266  1.00  0.00    -0.031 C 
BRANCH  13  14
HETATM   14  C   UNL     1      29.318 -11.534 -19.851  1.00  0.00     0.027 C 
BRANCH  14  15
HETATM   15  C   UNL     1      28.552 -12.467 -20.806  1.00  0.00     0.004 C 
BRANCH  15  16
HETATM   16  C   UNL     1      27.747 -13.578 -20.101  1.00  0.00     0.000 C 
BRANCH  16  17
HETATM   17  C   UNL     1      28.505 -14.227 -18.932  1.00  0.00     0.000 C 
BRANCH  17  18
HETATM   18  C   UNL     1      27.765 -14.010 -17.605  1.00  0.00     0.000 C 
BRANCH  18  19
HETATM   19  C   UNL     1      28.564 -13.090 -16.674  1.00  0.00    -0.000 C 
BRANCH  19  20
HETATM   20  C   UNL     1      28.381 -13.496 -15.207  1.00  0.00    -0.005 C 
HETATM   21  C   UNL     1      29.506 -12.942 -14.338  1.00  0.00     0.005 C 
ENDBRANCH  19  20
ENDBRANCH  18  19
ENDBRANCH  17  18
ENDBRANCH  16  17
ENDBRANCH  15  16
ENDBRANCH  14  15
ENDBRANCH  13  14
ENDBRANCH  11  12
ENDBRANCH  10  11
ENDBRANCH   9  10
ENDBRANCH   8   9
ENDBRANCH   7   8
ENDBRANCH   6   7
ENDBRANCH   5   6
ENDBRANCH   3   5
ENDBRANCH   1   3
TORSDOF 16
ENDMDL
MODEL 9
REMARK VINA RESULT:      -4.6      2.569      4.733
REMARK  16 active torsions:
REMARK  status: ('A' for Active; 'I' for Inactive)
REMARK    1  A    between atoms: O_1  and  C_20 
REMARK    2  A    between atoms: C_3  and  C_4 
REMARK    3  A    between atoms: C_3  and  C_5 
REMARK    4  A    between atoms: C_4  and  C_8 
REMARK    5  A    between atoms: C_5  and  C_11 
REMARK    6  A    between atoms: C_6  and  C_7 
REMARK    7  A    between atoms: C_6  and  C_9 
REMARK    8  A    between atoms: C_7  and  C_10 
REMARK    9  A    between atoms: C_8  and  C_12 
REMARK   10  A    between atoms: C_9  and  C_13 
REMARK   11  A    between atoms: C_10  and  C_14 
REMARK   12  A    between atoms: C_11  and  C_15 
REMARK   13  A    between atoms: C_12  and  C_16 
REMARK   14  A    between atoms: C_13  and  C_17 
REMARK   15  A    between atoms: C_14  and  C_18 
REMARK   16  A    between atoms: C_18  and  C_20 
ROOT
HETATM    1  O   UNL     1      36.622  10.633  -9.550  1.00  0.00    -0.776 OA
HETATM    2  H   UNL     1      35.814  10.433 -10.043  1.00  0.00     0.167 HD
ENDROOT
BRANCH   1   3
HETATM    3  C   UNL     1      37.652   9.763  -9.501  1.00  0.00     0.139 C 
HETATM    4  O   UNL     1      38.544   9.924  -8.679  1.00  0.00    -0.650 OA
BRANCH   3   5
HETATM    5  C   UNL     1      37.680   8.608 -10.467  1.00  0.00     0.110 C 
BRANCH   5   6
HETATM    6  C   UNL     1      38.551   7.440  -9.985  1.00  0.00     0.010 C 
BRANCH   6   7
HETATM    7  C   UNL     1      39.316   6.806 -11.153  1.00  0.00     0.001 C 
BRANCH   7   8
HETATM    8  C   UNL     1      39.879   7.882 -12.087  1.00  0.00     0.000 C 
BRANCH   8   9
HETATM    9  C   UNL     1      39.628   7.525 -13.556  1.00  0.00     0.000 C 
BRANCH   9  10
HETATM   10  C   UNL     1      38.449   8.327 -14.117  1.00  0.00     0.004 C 
BRANCH  10  11
HETATM   11  C   UNL     1      38.017   7.801 -15.488  1.00  0.00     0.027 C 
BRANCH  11  12
HETATM   12  C   UNL     1      39.217   7.237 -16.210  1.00  0.00    -0.031 C 
HETATM   13  C   UNL     1      39.523   7.398 -17.513  1.00  0.00    -0.031 C 
BRANCH  13  14
HETATM   14  C   UNL     1      38.733   8.172 -18.547  1.00  0.00     0.027 C 
BRANCH  14  15
HETATM   15  C   UNL     1      39.415   9.510 -18.882  1.00  0.00     0.004 C 
BRANCH  15  16
HETATM   16  C   UNL     1      40.261  10.098 -17.734  1.00  0.00     0.000 C 
BRANCH  16  17
HETATM   17  C   UNL     1      39.449  10.981 -16.773  1.00  0.00     0.000 C 
BRANCH  17  18
HETATM   18  C   UNL     1      40.250  11.301 -15.504  1.00  0.00     0.000 C 
BRANCH  18  19
HETATM   19  C   UNL     1      41.487  10.402 -15.394  1.00  0.00    -0.000 C 
BRANCH  19  20
HETATM   20  C   UNL     1      41.947  10.271 -13.938  1.00  0.00    -0.005 C 
HETATM   21  C   UNL     1      41.166  11.213 -13.027  1.00  0.00     0.005 C 
ENDBRANCH  19  20
ENDBRANCH  18  19
ENDBRANCH  17  18
ENDBRANCH  16  17
ENDBRANCH  15  16
ENDBRANCH  14  15
ENDBRANCH  13  14
ENDBRANCH  11  12
ENDBRANCH  10  11
ENDBRANCH   9  10
ENDBRANCH   8   9
ENDBRANCH   7   8
ENDBRANCH   6   7
ENDBRANCH   5   6
ENDBRANCH   3   5
ENDBRANCH   1   3
TORSDOF 16
ENDMDL
MODEL 10
REMARK VINA RESULT:      -4.6     25.199     26.688
REMARK  16 active torsions:
REMARK  status: ('A' for Active; 'I' for Inactive)
REMARK    1  A    between atoms: O_1  and  C_20 
REMARK    2  A    between atoms: C_3  and  C_4 
REMARK    3  A    between atoms: C_3  and  C_5 
REMARK    4  A    between atoms: C_4  and  C_8 
REMARK    5  A    between atoms: C_5  and  C_11 
REMARK    6  A    between atoms: C_6  and  C_7 
REMARK    7  A    between atoms: C_6  and  C_9 
REMARK    8  A    between atoms: C_7  and  C_10 
REMARK    9  A    between atoms: C_8  and  C_12 
REMARK   10  A    between atoms: C_9  and  C_13 
REMARK   11  A    between atoms: C_10  and  C_14 
REMARK   12  A    between atoms: C_11  and  C_15 
REMARK   13  A    between atoms: C_12  and  C_16 
REMARK   14  A    between atoms: C_13  and  C_17 
REMARK   15  A    between atoms: C_14  and  C_18 
REMARK   16  A    between atoms: C_18  and  C_20 
ROOT
HETATM    1  O   UNL     1      32.517 -20.497 -14.752  1.00  0.00    -0.776 OA
HETATM    2  H   UNL     1      33.073 -21.253 -14.513  1.00  0.00     0.167 HD
ENDROOT
BRANCH   1   3
HETATM    3  C   UNL     1      31.197 -20.641 -14.992  1.00  0.00     0.139 C 
HETATM    4  O   UNL     1      30.810 -20.895 -16.125  1.00  0.00    -0.650 OA
BRANCH   3   5
HETATM    5  C   UNL     1      30.225 -20.483 -13.853  1.00  0.00     0.110 C 
BRANCH   5   6
HETATM    6  C   UNL     1      29.547 -19.106 -13.825  1.00  0.00     0.010 C 
BRANCH   6   7
HETATM    7  C   UNL     1      30.498 -18.036 -13.276  1.00  0.00     0.001 C 
BRANCH   7   8
HETATM    8  C   UNL     1      30.388 -16.740 -14.086  1.00  0.00     0.000 C 
BRANCH   8   9
HETATM    9  C   UNL     1      31.157 -16.848 -15.408  1.00  0.00     0.000 C 
BRANCH   9  10
HETATM   10  C   UNL     1      30.197 -17.091 -16.576  1.00  0.00     0.004 C 
BRANCH  10  11
HETATM   11  C   UNL     1      29.732 -15.772 -17.200  1.00  0.00     0.027 C 
BRANCH  11  12
HETATM   12  C   UNL     1      30.879 -14.790 -17.211  1.00  0.00    -0.031 C 
HETATM   13  C   UNL     1      30.793 -13.452 -17.352  1.00  0.00    -0.031 C 
BRANCH  13  14
HETATM   14  C   UNL     1      29.534 -12.632 -17.537  1.00  0.00     0.027 C 
BRANCH  14  15
HETATM   15  C   UNL     1      29.063 -12.026 -16.204  1.00  0.00     0.004 C 
BRANCH  15  16
HETATM   16  C   UNL     1      27.878 -12.766 -15.551  1.00  0.00     0.000 C 
BRANCH  16  17
HETATM   17  C   UNL     1      28.308 -13.735 -14.438  1.00  0.00     0.000 C 
BRANCH  17  18
HETATM   18  C   UNL     1      29.570 -13.234 -13.724  1.00  0.00     0.000 C 
BRANCH  18  19
HETATM   19  C   UNL     1      29.216 -12.533 -12.408  1.00  0.00    -0.000 C 
BRANCH  19  20
HETATM   20  C   UNL     1      29.822 -13.271 -11.208  1.00  0.00    -0.005 C 
HETATM   21  C   UNL     1      31.075 -14.042 -11.612  1.00  0.00     0.005 C 
ENDBRANCH  19  20
ENDBRANCH  18  19
ENDBRANCH  17  18
ENDBRANCH  16  17
ENDBRANCH  15  16
ENDBRANCH  14  15
ENDBRANCH  13  14
ENDBRANCH  11  12
ENDBRANCH  10  11
ENDBRANCH   9  10
ENDBRANCH   8   9
ENDBRANCH   7   8
ENDBRANCH   6   7
ENDBRANCH   5   6
ENDBRANCH   3   5
ENDBRANCH   1   3
TORSDOF 16
ENDMDL
MODEL 11
REMARK VINA RESULT:      -4.6      3.592      6.862
REMARK  16 active torsions:
REMARK  status: ('A' for Active; 'I' for Inactive)
REMARK    1  A    between atoms: O_1  and  C_20 
REMARK    2  A    between atoms: C_3  and  C_4 
REMARK    3  A    between atoms: C_3  and  C_5 
REMARK    4  A    between atoms: C_4  and  C_8 
REMARK    5  A    between atoms: C_5  and  C_11 
REMARK    6  A    between atoms: C_6  and  C_7 
REMARK    7  A    between atoms: C_6  and  C_9 
REMARK    8  A    between atoms: C_7  and  C_10 
REMARK    9  A    between atoms: C_8  and  C_12 
REMARK   10  A    between atoms: C_9  and  C_13 
REMARK   11  A    between atoms: C_10  and  C_14 
REMARK   12  A    between atoms: C_11  and  C_15 
REMARK   13  A    between atoms: C_12  and  C_16 
REMARK   14  A    between atoms: C_13  and  C_17 
REMARK   15  A    between atoms: C_14  and  C_18 
REMARK   16  A    between atoms: C_18  and  C_20 
ROOT
HETATM    1  O   UNL     1      38.544   8.541 -12.208  1.00  0.00    -0.776 OA
HETATM    2  H   UNL     1      37.651   8.444 -11.848  1.00  0.00     0.167 HD
ENDROOT
BRANCH   1   3
HETATM    3  C   UNL     1      39.249   7.475 -12.643  1.00  0.00     0.139 C 
HETATM    4  O   UNL     1      39.470   6.543 -11.882  1.00  0.00    -0.650 OA
BRANCH   3   5
HETATM    5  C   UNL     1      39.748   7.459 -14.064  1.00  0.00     0.110 C 
BRANCH   5   6
HETATM    6  C   UNL     1      38.635   7.211 -15.091  1.00  0.00     0.010 C 
BRANCH   6   7
HETATM    7  C   UNL     1      38.881   8.016 -16.374  1.00  0.00     0.001 C 
BRANCH   7   8
HETATM    8  C   UNL     1      39.408   7.112 -17.494  1.00  0.00     0.000 C 
BRANCH   8   9
HETATM    9  C   UNL     1      40.234   7.914 -18.506  1.00  0.00     0.000 C 
BRANCH   9  10
HETATM   10  C   UNL     1      39.755   7.641 -19.936  1.00  0.00     0.004 C 
BRANCH  10  11
HETATM   11  C   UNL     1      38.230   7.527 -20.002  1.00  0.00     0.027 C 
BRANCH  11  12
HETATM   12  C   UNL     1      37.673   8.689 -20.788  1.00  0.00    -0.031 C 
HETATM   13  C   UNL     1      37.272   9.878 -20.294  1.00  0.00    -0.031 C 
BRANCH  13  14
HETATM   14  C   UNL     1      37.280  10.314 -18.844  1.00  0.00     0.027 C 
BRANCH  14  15
HETATM   15  C   UNL     1      38.136  11.577 -18.647  1.00  0.00     0.004 C 
BRANCH  15  16
HETATM   16  C   UNL     1      39.343  11.388 -17.706  1.00  0.00     0.000 C 
BRANCH  16  17
HETATM   17  C   UNL     1      40.697  11.510 -18.425  1.00  0.00     0.000 C 
BRANCH  17  18
HETATM   18  C   UNL     1      41.859  11.203 -17.471  1.00  0.00     0.000 C 
BRANCH  18  19
HETATM   19  C   UNL     1      41.349  10.578 -16.167  1.00  0.00    -0.000 C 
BRANCH  19  20
HETATM   20  C   UNL     1      42.011  11.230 -14.947  1.00  0.00    -0.005 C 
HETATM   21  C   UNL     1      41.718  12.726 -14.896  1.00  0.00     0.005 C 
ENDBRANCH  19  20
ENDBRANCH  18  19
ENDBRANCH  17  18
ENDBRANCH  16  17
ENDBRANCH  15  16
ENDBRANCH  14  15
ENDBRANCH  13  14
ENDBRANCH  11  12
ENDBRANCH  10  11
ENDBRANCH   9  10
ENDBRANCH   8   9
ENDBRANCH   7   8
ENDBRANCH   6   7
ENDBRANCH   5   6
ENDBRANCH   3   5
ENDBRANCH   1   3
TORSDOF 16
ENDMDL
MODEL 12
REMARK VINA RESULT:      -4.6     26.020     27.018
REMARK  16 active torsions:
REMARK  status: ('A' for Active; 'I' for Inactive)
REMARK    1  A    between atoms: O_1  and  C_20 
REMARK    2  A    between atoms: C_3  and  C_4 
REMARK    3  A    between atoms: C_3  and  C_5 
REMARK    4  A    between atoms: C_4  and  C_8 
REMARK    5  A    between atoms: C_5  and  C_11 
REMARK    6  A    between atoms: C_6  and  C_7 
REMARK    7  A    between atoms: C_6  and  C_9 
REMARK    8  A    between atoms: C_7  and  C_10 
REMARK    9  A    between atoms: C_8  and  C_12 
REMARK   10  A    between atoms: C_9  and  C_13 
REMARK   11  A    between atoms: C_10  and  C_14 
REMARK   12  A    between atoms: C_11  and  C_15 
REMARK   13  A    between atoms: C_12  and  C_16 
REMARK   14  A    between atoms: C_13  and  C_17 
REMARK   15  A    between atoms: C_14  and  C_18 
REMARK   16  A    between atoms: C_18  and  C_20 
ROOT
HETATM    1  O   UNL     1      32.659 -20.225  -9.353  1.00  0.00    -0.776 OA
HETATM    2  H   UNL     1      32.936 -19.355  -9.033  1.00  0.00     0.167 HD
ENDROOT
BRANCH   1   3
HETATM    3  C   UNL     1      31.396 -20.454  -9.769  1.00  0.00     0.139 C 
HETATM    4  O   UNL     1      31.199 -20.930 -10.880  1.00  0.00    -0.650 OA
BRANCH   3   5
HETATM    5  C   UNL     1      30.250 -20.116  -8.852  1.00  0.00     0.110 C 
BRANCH   5   6
HETATM    6  C   UNL     1      29.792 -18.656  -8.972  1.00  0.00     0.010 C 
BRANCH   6   7
HETATM    7  C   UNL     1      30.195 -17.849  -7.731  1.00  0.00     0.001 C 
BRANCH   7   8
HETATM    8  C   UNL     1      30.233 -16.349  -8.043  1.00  0.00     0.000 C 
BRANCH   8   9
HETATM    9  C   UNL     1      29.578 -15.536  -6.921  1.00  0.00     0.000 C 
BRANCH   9  10
HETATM   10  C   UNL     1      28.602 -14.504  -7.496  1.00  0.00     0.004 C 
BRANCH  10  11
HETATM   11  C   UNL     1      28.452 -14.662  -9.011  1.00  0.00     0.027 C 
BRANCH  11  12
HETATM   12  C   UNL     1      28.467 -13.299  -9.662  1.00  0.00    -0.031 C 
HETATM   13  C   UNL     1      27.913 -12.964 -10.845  1.00  0.00    -0.031 C 
BRANCH  13  14
HETATM   14  C   UNL     1      27.160 -13.876 -11.791  1.00  0.00     0.027 C 
BRANCH  14  15
HETATM   15  C   UNL     1      27.971 -14.142 -13.071  1.00  0.00     0.004 C 
BRANCH  15  16
HETATM   16  C   UNL     1      29.438 -13.670 -13.004  1.00  0.00     0.000 C 
BRANCH  16  17
HETATM   17  C   UNL     1      30.427 -14.807 -12.697  1.00  0.00     0.000 C 
BRANCH  17  18
HETATM   18  C   UNL     1      30.029 -16.098 -13.426  1.00  0.00     0.000 C 
BRANCH  18  19
HETATM   19  C   UNL     1      30.172 -17.315 -12.505  1.00  0.00    -0.000 C 
BRANCH  19  20
HETATM   20  C   UNL     1      29.944 -18.621 -13.276  1.00  0.00    -0.005 C 
HETATM   21  C   UNL     1      30.245 -18.443 -14.761  1.00  0.00     0.005 C 
ENDBRANCH  19  20
ENDBRANCH  18  19
ENDBRANCH  17  18
ENDBRANCH  16  17
ENDBRANCH  15  16
ENDBRANCH  14  15
ENDBRANCH  13  14
ENDBRANCH  11  12
ENDBRANCH  10  11
ENDBRANCH   9  10
ENDBRANCH   8   9
ENDBRANCH   7   8
ENDBRANCH   6   7
ENDBRANCH   5   6
ENDBRANCH   3   5
ENDBRANCH   1   3
TORSDOF 16
ENDMDL
MODEL 13
REMARK VINA RESULT:      -4.6     25.854     27.791
REMARK  16 active torsions:
REMARK  status: ('A' for Active; 'I' for Inactive)
REMARK    1  A    between atoms: O_1  and  C_20 
REMARK    2  A    between atoms: C_3  and  C_4 
REMARK    3  A    between atoms: C_3  and  C_5 
REMARK    4  A    between atoms: C_4  and  C_8 
REMARK    5  A    between atoms: C_5  and  C_11 
REMARK    6  A    between atoms: C_6  and  C_7 
REMARK    7  A    between atoms: C_6  and  C_9 
REMARK    8  A    between atoms: C_7  and  C_10 
REMARK    9  A    between atoms: C_8  and  C_12 
REMARK   10  A    between atoms: C_9  and  C_13 
REMARK   11  A    between atoms: C_10  and  C_14 
REMARK   12  A    between atoms: C_11  and  C_15 
REMARK   13  A    between atoms: C_12  and  C_16 
REMARK   14  A    between atoms: C_13  and  C_17 
REMARK   15  A    between atoms: C_14  and  C_18 
REMARK   16  A    between atoms: C_18  and  C_20 
ROOT
HETATM    1  O   UNL     1      31.858 -21.106  -5.119  1.00  0.00    -0.776 OA
HETATM    2  H   UNL     1      32.718 -20.794  -4.802  1.00  0.00     0.167 HD
ENDROOT
BRANCH   1   3
HETATM    3  C   UNL     1      30.800 -20.275  -5.219  1.00  0.00     0.139 C 
HETATM    4  O   UNL     1      29.979 -20.226  -4.313  1.00  0.00    -0.650 OA
BRANCH   3   5
HETATM    5  C   UNL     1      30.655 -19.422  -6.452  1.00  0.00     0.110 C 
BRANCH   5   6
HETATM    6  C   UNL     1      30.831 -20.212  -7.756  1.00  0.00     0.010 C 
BRANCH   6   7
HETATM    7  C   UNL     1      29.949 -19.637  -8.871  1.00  0.00     0.001 C 
BRANCH   7   8
HETATM    8  C   UNL     1      30.718 -19.565 -10.194  1.00  0.00     0.000 C 
BRANCH   8   9
HETATM    9  C   UNL     1      30.503 -18.212 -10.884  1.00  0.00     0.000 C 
BRANCH   9  10
HETATM   10  C   UNL     1      30.179 -17.124  -9.856  1.00  0.00     0.004 C 
BRANCH  10  11
HETATM   11  C   UNL     1      31.446 -16.403  -9.387  1.00  0.00     0.027 C 
BRANCH  11  12
HETATM   12  C   UNL     1      31.101 -14.986  -8.994  1.00  0.00    -0.031 C 
HETATM   13  C   UNL     1      30.906 -14.522  -7.744  1.00  0.00    -0.031 C 
BRANCH  13  14
HETATM   14  C   UNL     1      30.979 -15.312  -6.454  1.00  0.00     0.027 C 
BRANCH  14  15
HETATM   15  C   UNL     1      29.616 -15.936  -6.107  1.00  0.00     0.004 C 
BRANCH  15  16
HETATM   16  C   UNL     1      28.901 -15.278  -4.909  1.00  0.00     0.000 C 
BRANCH  16  17
HETATM   17  C   UNL     1      28.243 -13.934  -5.260  1.00  0.00     0.000 C 
BRANCH  17  18
HETATM   18  C   UNL     1      28.979 -12.766  -4.590  1.00  0.00     0.000 C 
BRANCH  18  19
HETATM   19  C   UNL     1      29.510 -11.778  -5.635  1.00  0.00    -0.000 C 
BRANCH  19  20
HETATM   20  C   UNL     1      30.999 -11.489  -5.415  1.00  0.00    -0.005 C 
HETATM   21  C   UNL     1      31.586 -12.404  -4.345  1.00  0.00     0.005 C 
ENDBRANCH  19  20
ENDBRANCH  18  19
ENDBRANCH  17  18
ENDBRANCH  16  17
ENDBRANCH  15  16
ENDBRANCH  14  15
ENDBRANCH  13  14
ENDBRANCH  11  12
ENDBRANCH  10  11
ENDBRANCH   9  10
ENDBRANCH   8   9
ENDBRANCH   7   8
ENDBRANCH   6   7
ENDBRANCH   5   6
ENDBRANCH   3   5
ENDBRANCH   1   3
TORSDOF 16
ENDMDL
MODEL 14
REMARK VINA RESULT:      -4.5      1.785      3.342
REMARK  16 active torsions:
REMARK  status: ('A' for Active; 'I' for Inactive)
REMARK    1  A    between atoms: O_1  and  C_20 
REMARK    2  A    between atoms: C_3  and  C_4 
REMARK    3  A    between atoms: C_3  and  C_5 
REMARK    4  A    between atoms: C_4  and  C_8 
REMARK    5  A    between atoms: C_5  and  C_11 
REMARK    6  A    between atoms: C_6  and  C_7 
REMARK    7  A    between atoms: C_6  and  C_9 
REMARK    8  A    between atoms: C_7  and  C_10 
REMARK    9  A    between atoms: C_8  and  C_12 
REMARK   10  A    between atoms: C_9  and  C_13 
REMARK   11  A    between atoms: C_10  and  C_14 
REMARK   12  A    between atoms: C_11  and  C_15 
REMARK   13  A    between atoms: C_12  and  C_16 
REMARK   14  A    between atoms: C_13  and  C_17 
REMARK   15  A    between atoms: C_14  and  C_18 
REMARK   16  A    between atoms: C_18  and  C_20 
ROOT
HETATM    1  O   UNL     1      38.281   8.568  -7.817  1.00  0.00    -0.776 OA
HETATM    2  H   UNL     1      37.723   8.594  -7.026  1.00  0.00     0.167 HD
ENDROOT
BRANCH   1   3
HETATM    3  C   UNL     1      39.343   7.740  -7.904  1.00  0.00     0.139 C 
HETATM    4  O   UNL     1      39.372   6.717  -7.233  1.00  0.00    -0.650 OA
BRANCH   3   5
HETATM    5  C   UNL     1      40.475   8.098  -8.831  1.00  0.00     0.110 C 
BRANCH   5   6
HETATM    6  C   UNL     1      40.168   7.790 -10.303  1.00  0.00     0.010 C 
BRANCH   6   7
HETATM    7  C   UNL     1      40.250   9.061 -11.159  1.00  0.00     0.001 C 
BRANCH   7   8
HETATM    8  C   UNL     1      39.446   8.900 -12.454  1.00  0.00     0.000 C 
BRANCH   8   9
HETATM    9  C   UNL     1      39.570   7.476 -13.008  1.00  0.00     0.000 C 
BRANCH   9  10
HETATM   10  C   UNL     1      40.045   7.500 -14.464  1.00  0.00     0.004 C 
BRANCH  10  11
HETATM   11  C   UNL     1      38.925   7.090 -15.424  1.00  0.00     0.027 C 
BRANCH  11  12
HETATM   12  C   UNL     1      38.532   8.276 -16.272  1.00  0.00    -0.031 C 
HETATM   13  C   UNL     1      38.688   8.401 -17.605  1.00  0.00    -0.031 C 
BRANCH  13  14
HETATM   14  C   UNL     1      39.298   7.389 -18.551  1.00  0.00     0.027 C 
BRANCH  14  15
HETATM   15  C   UNL     1      40.625   7.904 -19.138  1.00  0.00     0.004 C 
BRANCH  15  16
HETATM   16  C   UNL     1      40.462   8.990 -20.221  1.00  0.00     0.000 C 
BRANCH  16  17
HETATM   17  C   UNL     1      39.627   8.525 -21.425  1.00  0.00     0.000 C 
BRANCH  17  18
HETATM   18  C   UNL     1      40.457   8.548 -22.715  1.00  0.00     0.000 C 
BRANCH  18  19
HETATM   19  C   UNL     1      39.681   7.920 -23.879  1.00  0.00    -0.000 C 
BRANCH  19  20
HETATM   20  C   UNL     1      38.236   8.430 -23.918  1.00  0.00    -0.005 C 
HETATM   21  C   UNL     1      37.648   8.310 -25.321  1.00  0.00     0.005 C 
ENDBRANCH  19  20
ENDBRANCH  18  19
ENDBRANCH  17  18
ENDBRANCH  16  17
ENDBRANCH  15  16
ENDBRANCH  14  15
ENDBRANCH  13  14
ENDBRANCH  11  12
ENDBRANCH  10  11
ENDBRANCH   9  10
ENDBRANCH   8   9
ENDBRANCH   7   8
ENDBRANCH   6   7
ENDBRANCH   5   6
ENDBRANCH   3   5
ENDBRANCH   1   3
TORSDOF 16
ENDMDL
MODEL 15
REMARK VINA RESULT:      -4.5      3.951      8.810
REMARK  16 active torsions:
REMARK  status: ('A' for Active; 'I' for Inactive)
REMARK    1  A    between atoms: O_1  and  C_20 
REMARK    2  A    between atoms: C_3  and  C_4 
REMARK    3  A    between atoms: C_3  and  C_5 
REMARK    4  A    between atoms: C_4  and  C_8 
REMARK    5  A    between atoms: C_5  and  C_11 
REMARK    6  A    between atoms: C_6  and  C_7 
REMARK    7  A    between atoms: C_6  and  C_9 
REMARK    8  A    between atoms: C_7  and  C_10 
REMARK    9  A    between atoms: C_8  and  C_12 
REMARK   10  A    between atoms: C_9  and  C_13 
REMARK   11  A    between atoms: C_10  and  C_14 
REMARK   12  A    between atoms: C_11  and  C_15 
REMARK   13  A    between atoms: C_12  and  C_16 
REMARK   14  A    between atoms: C_13  and  C_17 
REMARK   15  A    between atoms: C_14  and  C_18 
REMARK   16  A    between atoms: C_18  and  C_20 
ROOT
HETATM    1  O   UNL     1      38.836   6.305 -14.922  1.00  0.00    -0.776 OA
HETATM    2  H   UNL     1      38.853   5.338 -14.967  1.00  0.00     0.167 HD
ENDROOT
BRANCH   1   3
HETATM    3  C   UNL     1      39.443   7.065 -15.858  1.00  0.00     0.139 C 
HETATM    4  O   UNL     1      39.496   6.675 -17.017  1.00  0.00    -0.650 OA
BRANCH   3   5
HETATM    5  C   UNL     1      40.045   8.384 -15.450  1.00  0.00     0.110 C 
BRANCH   5   6
HETATM    6  C   UNL     1      39.466   8.932 -14.139  1.00  0.00     0.010 C 
BRANCH   6   7
HETATM    7  C   UNL     1      40.573   9.163 -13.103  1.00  0.00     0.001 C 
BRANCH   7   8
HETATM    8  C   UNL     1      40.329  10.458 -12.321  1.00  0.00     0.000 C 
BRANCH   8   9
HETATM    9  C   UNL     1      39.825  11.573 -13.245  1.00  0.00     0.000 C 
BRANCH   9  10
HETATM   10  C   UNL     1      38.579  12.244 -12.659  1.00  0.00     0.004 C 
BRANCH  10  11
HETATM   11  C   UNL     1      37.369  11.306 -12.697  1.00  0.00     0.027 C 
BRANCH  11  12
HETATM   12  C   UNL     1      36.818  11.141 -11.301  1.00  0.00    -0.031 C 
HETATM   13  C   UNL     1      36.868  10.028 -10.541  1.00  0.00    -0.031 C 
BRANCH  13  14
HETATM   14  C   UNL     1      37.479   8.694 -10.915  1.00  0.00     0.027 C 
BRANCH  14  15
HETATM   15  C   UNL     1      38.175   8.043  -9.707  1.00  0.00     0.004 C 
BRANCH  15  16
HETATM   16  C   UNL     1      39.480   7.296 -10.051  1.00  0.00     0.000 C 
BRANCH  16  17
HETATM   17  C   UNL     1      40.737   7.987  -9.498  1.00  0.00     0.000 C 
BRANCH  17  18
HETATM   18  C   UNL     1      40.379   9.296  -8.782  1.00  0.00     0.000 C 
BRANCH  18  19
HETATM   19  C   UNL     1      40.783   9.242  -7.304  1.00  0.00    -0.000 C 
BRANCH  19  20
HETATM   20  C   UNL     1      39.561   9.393  -6.391  1.00  0.00    -0.005 C 
HETATM   21  C   UNL     1      39.956   9.962  -5.032  1.00  0.00     0.005 C 
ENDBRANCH  19  20
ENDBRANCH  18  19
ENDBRANCH  17  18
ENDBRANCH  16  17
ENDBRANCH  15  16
ENDBRANCH  14  15
ENDBRANCH  13  14
ENDBRANCH  11  12
ENDBRANCH  10  11
ENDBRANCH   9  10
ENDBRANCH   8   9
ENDBRANCH   7   8
ENDBRANCH   6   7
ENDBRANCH   5   6
ENDBRANCH   3   5
ENDBRANCH   1   3
TORSDOF 16
ENDMDL
MODEL 16
REMARK VINA RESULT:      -4.5     25.358     26.546
REMARK  16 active torsions:
REMARK  status: ('A' for Active; 'I' for Inactive)
REMARK    1  A    between atoms: O_1  and  C_20 
REMARK    2  A    between atoms: C_3  and  C_4 
REMARK    3  A    between atoms: C_3  and  C_5 
REMARK    4  A    between atoms: C_4  and  C_8 
REMARK    5  A    between atoms: C_5  and  C_11 
REMARK    6  A    between atoms: C_6  and  C_7 
REMARK    7  A    between atoms: C_6  and  C_9 
REMARK    8  A    between atoms: C_7  and  C_10 
REMARK    9  A    between atoms: C_8  and  C_12 
REMARK   10  A    between atoms: C_9  and  C_13 
REMARK   11  A    between atoms: C_10  and  C_14 
REMARK   12  A    between atoms: C_11  and  C_15 
REMARK   13  A    between atoms: C_12  and  C_16 
REMARK   14  A    between atoms: C_13  and  C_17 
REMARK   15  A    between atoms: C_14  and  C_18 
REMARK   16  A    between atoms: C_18  and  C_20 
ROOT
HETATM    1  O   UNL     1      32.433 -20.560 -14.596  1.00  0.00    -0.776 OA
HETATM    2  H   UNL     1      33.271 -20.692 -15.062  1.00  0.00     0.167 HD
ENDROOT
BRANCH   1   3
HETATM    3  C   UNL     1      31.314 -20.184 -15.249  1.00  0.00     0.139 C 
HETATM    4  O   UNL     1      30.790 -20.950 -16.047  1.00  0.00    -0.650 OA
BRANCH   3   5
HETATM    5  C   UNL     1      30.733 -18.821 -14.978  1.00  0.00     0.110 C 
BRANCH   5   6
HETATM    6  C   UNL     1      29.640 -18.835 -13.900  1.00  0.00     0.010 C 
BRANCH   6   7
HETATM    7  C   UNL     1      30.242 -18.617 -12.506  1.00  0.00     0.001 C 
BRANCH   7   8
HETATM    8  C   UNL     1      30.950 -17.261 -12.421  1.00  0.00     0.000 C 
BRANCH   8   9
HETATM    9  C   UNL     1      29.987 -16.164 -11.952  1.00  0.00     0.000 C 
BRANCH   9  10
HETATM   10  C   UNL     1      30.729 -14.839 -11.752  1.00  0.00     0.004 C 
BRANCH  10  11
HETATM   11  C   UNL     1      29.891 -13.652 -12.234  1.00  0.00     0.027 C 
BRANCH  11  12
HETATM   12  C   UNL     1      28.488 -14.118 -12.539  1.00  0.00    -0.031 C 
HETATM   13  C   UNL     1      27.796 -13.904 -13.676  1.00  0.00    -0.031 C 
BRANCH  13  14
HETATM   14  C   UNL     1      28.263 -13.142 -14.898  1.00  0.00     0.027 C 
BRANCH  14  15
HETATM   15  C   UNL     1      28.336 -14.060 -16.132  1.00  0.00     0.004 C 
BRANCH  15  16
HETATM   16  C   UNL     1      29.029 -15.414 -15.878  1.00  0.00     0.000 C 
BRANCH  16  17
HETATM   17  C   UNL     1      29.981 -15.830 -17.011  1.00  0.00     0.000 C 
BRANCH  17  18
HETATM   18  C   UNL     1      31.390 -15.265 -16.785  1.00  0.00     0.000 C 
BRANCH  18  19
HETATM   19  C   UNL     1      31.740 -15.241 -15.293  1.00  0.00    -0.000 C 
BRANCH  19  20
HETATM   20  C   UNL     1      32.590 -14.014 -14.944  1.00  0.00    -0.005 C 
HETATM   21  C   UNL     1      31.874 -12.722 -15.327  1.00  0.00     0.005 C 
ENDBRANCH  19  20
ENDBRANCH  18  19
ENDBRANCH  17  18
ENDBRANCH  16  17
ENDBRANCH  15  16
ENDBRANCH  14  15
ENDBRANCH  13  14
ENDBRANCH  11  12
ENDBRANCH  10  11
ENDBRANCH   9  10
ENDBRANCH   8   9
ENDBRANCH   7   8
ENDBRANCH   6   7
ENDBRANCH   5   6
ENDBRANCH   3   5
ENDBRANCH   1   3
TORSDOF 16
ENDMDL
MODEL 17
REMARK VINA RESULT:      -4.5      5.315      9.529
REMARK  16 active torsions:
REMARK  status: ('A' for Active; 'I' for Inactive)
REMARK    1  A    between atoms: O_1  and  C_20 
REMARK    2  A    between atoms: C_3  and  C_4 
REMARK    3  A    between atoms: C_3  and  C_5 
REMARK    4  A    between atoms: C_4  and  C_8 
REMARK    5  A    between atoms: C_5  and  C_11 
REMARK    6  A    between atoms: C_6  and  C_7 
REMARK    7  A    between atoms: C_6  and  C_9 
REMARK    8  A    between atoms: C_7  and  C_10 
REMARK    9  A    between atoms: C_8  and  C_12 
REMARK   10  A    between atoms: C_9  and  C_13 
REMARK   11  A    between atoms: C_10  and  C_14 
REMARK   12  A    between atoms: C_11  and  C_15 
REMARK   13  A    between atoms: C_12  and  C_16 
REMARK   14  A    between atoms: C_13  and  C_17 
REMARK   15  A    between atoms: C_14  and  C_18 
REMARK   16  A    between atoms: C_18  and  C_20 
ROOT
HETATM    1  O   UNL     1      35.689  12.908  -9.599  1.00  0.00    -0.776 OA
HETATM    2  H   UNL     1      36.414  13.481  -9.887  1.00  0.00     0.167 HD
ENDROOT
BRANCH   1   3
HETATM    3  C   UNL     1      35.919  11.668  -9.118  1.00  0.00     0.139 C 
HETATM    4  O   UNL     1      35.857  11.463  -7.913  1.00  0.00    -0.650 OA
BRANCH   3   5
HETATM    5  C   UNL     1      36.247  10.559 -10.083  1.00  0.00     0.110 C 
BRANCH   5   6
HETATM    6  C   UNL     1      37.617  10.729 -10.753  1.00  0.00     0.010 C 
BRANCH   6   7
HETATM    7  C   UNL     1      38.085   9.414 -11.389  1.00  0.00     0.001 C 
BRANCH   7   8
HETATM    8  C   UNL     1      37.508   8.209 -10.640  1.00  0.00     0.000 C 
BRANCH   8   9
HETATM    9  C   UNL     1      38.605   7.194 -10.298  1.00  0.00     0.000 C 
BRANCH   9  10
HETATM   10  C   UNL     1      39.986   7.741 -10.674  1.00  0.00     0.004 C 
BRANCH  10  11
HETATM   11  C   UNL     1      40.861   7.950  -9.435  1.00  0.00     0.027 C 
BRANCH  11  12
HETATM   12  C   UNL     1      41.272   9.401  -9.350  1.00  0.00    -0.031 C 
HETATM   13  C   UNL     1      41.111  10.223  -8.294  1.00  0.00    -0.031 C 
BRANCH  13  14
HETATM   14  C   UNL     1      40.477   9.885  -6.961  1.00  0.00     0.027 C 
BRANCH  14  15
HETATM   15  C   UNL     1      38.946  10.038  -7.019  1.00  0.00     0.004 C 
BRANCH  15  16
HETATM   16  C   UNL     1      38.172   8.704  -6.979  1.00  0.00     0.000 C 
BRANCH  16  17
HETATM   17  C   UNL     1      39.017   7.528  -6.464  1.00  0.00     0.000 C 
BRANCH  17  18
HETATM   18  C   UNL     1      38.534   7.063  -5.084  1.00  0.00     0.000 C 
BRANCH  18  19
HETATM   19  C   UNL     1      39.543   7.441  -3.993  1.00  0.00    -0.000 C 
BRANCH  19  20
HETATM   20  C   UNL     1      38.904   8.357  -2.943  1.00  0.00    -0.005 C 
HETATM   21  C   UNL     1      39.145   9.827  -3.275  1.00  0.00     0.005 C 
ENDBRANCH  19  20
ENDBRANCH  18  19
ENDBRANCH  17  18
ENDBRANCH  16  17
ENDBRANCH  15  16
ENDBRANCH  14  15
ENDBRANCH  13  14
ENDBRANCH  11  12
ENDBRANCH  10  11
ENDBRANCH   9  10
ENDBRANCH   8   9
ENDBRANCH   7   8
ENDBRANCH   6   7
ENDBRANCH   5   6
ENDBRANCH   3   5
ENDBRANCH   1   3
TORSDOF 16
ENDMDL
MODEL 18
REMARK VINA RESULT:      -4.5     24.832     26.732
REMARK  16 active torsions:
REMARK  status: ('A' for Active; 'I' for Inactive)
REMARK    1  A    between atoms: O_1  and  C_20 
REMARK    2  A    between atoms: C_3  and  C_4 
REMARK    3  A    between atoms: C_3  and  C_5 
REMARK    4  A    between atoms: C_4  and  C_8 
REMARK    5  A    between atoms: C_5  and  C_11 
REMARK    6  A    between atoms: C_6  and  C_7 
REMARK    7  A    between atoms: C_6  and  C_9 
REMARK    8  A    between atoms: C_7  and  C_10 
REMARK    9  A    between atoms: C_8  and  C_12 
REMARK   10  A    between atoms: C_9  and  C_13 
REMARK   11  A    between atoms: C_10  and  C_14 
REMARK   12  A    between atoms: C_11  and  C_15 
REMARK   13  A    between atoms: C_12  and  C_16 
REMARK   14  A    between atoms: C_13  and  C_17 
REMARK   15  A    between atoms: C_14  and  C_18 
REMARK   16  A    between atoms: C_18  and  C_20 
ROOT
HETATM    1  O   UNL     1      32.149 -20.997  -9.869  1.00  0.00    -0.776 OA
HETATM    2  H   UNL     1      32.919 -20.461 -10.110  1.00  0.00     0.167 HD
ENDROOT
BRANCH   1   3
HETATM    3  C   UNL     1      30.903 -20.654 -10.255  1.00  0.00     0.139 C 
HETATM    4  O   UNL     1      30.580 -20.761 -11.431  1.00  0.00    -0.650 OA
BRANCH   3   5
HETATM    5  C   UNL     1      29.932 -20.143  -9.223  1.00  0.00     0.110 C 
BRANCH   5   6
HETATM    6  C   UNL     1      30.607 -19.754  -7.900  1.00  0.00     0.010 C 
BRANCH   6   7
HETATM    7  C   UNL     1      30.187 -18.346  -7.462  1.00  0.00     0.001 C 
BRANCH   7   8
HETATM    8  C   UNL     1      30.209 -17.375  -8.647  1.00  0.00     0.000 C 
BRANCH   8   9
HETATM    9  C   UNL     1      31.647 -17.023  -9.045  1.00  0.00     0.000 C 
BRANCH   9  10
HETATM   10  C   UNL     1      31.811 -15.508  -9.206  1.00  0.00     0.004 C 
BRANCH  10  11
HETATM   11  C   UNL     1      31.115 -14.748  -8.074  1.00  0.00     0.027 C 
BRANCH  11  12
HETATM   12  C   UNL     1      30.134 -13.762  -8.661  1.00  0.00    -0.031 C 
HETATM   13  C   UNL     1      28.961 -13.373  -8.122  1.00  0.00    -0.031 C 
BRANCH  13  14
HETATM   14  C   UNL     1      28.358 -13.840  -6.814  1.00  0.00     0.027 C 
BRANCH  14  15
HETATM   15  C   UNL     1      28.178 -12.668  -5.834  1.00  0.00     0.004 C 
BRANCH  15  16
HETATM   16  C   UNL     1      29.449 -11.821  -5.614  1.00  0.00     0.000 C 
BRANCH  16  17
HETATM   17  C   UNL     1      30.605 -12.616  -4.985  1.00  0.00     0.000 C 
BRANCH  17  18
HETATM   18  C   UNL     1      31.675 -11.676  -4.413  1.00  0.00     0.000 C 
BRANCH  18  19
HETATM   19  C   UNL     1      32.408 -10.931  -5.535  1.00  0.00    -0.000 C 
BRANCH  19  20
HETATM   20  C   UNL     1      32.935 -11.907  -6.594  1.00  0.00    -0.005 C 
HETATM   21  C   UNL     1      33.391 -11.166  -7.847  1.00  0.00     0.005 C 
ENDBRANCH  19  20
ENDBRANCH  18  19
ENDBRANCH  17  18
ENDBRANCH  16  17
ENDBRANCH  15  16
ENDBRANCH  14  15
ENDBRANCH  13  14
ENDBRANCH  11  12
ENDBRANCH  10  11
ENDBRANCH   9  10
ENDBRANCH   8   9
ENDBRANCH   7   8
ENDBRANCH   6   7
ENDBRANCH   5   6
ENDBRANCH   3   5
ENDBRANCH   1   3
TORSDOF 16
ENDMDL
MODEL 19
REMARK VINA RESULT:      -4.5     24.978     26.503
REMARK  16 active torsions:
REMARK  status: ('A' for Active; 'I' for Inactive)
REMARK    1  A    between atoms: O_1  and  C_20 
REMARK    2  A    between atoms: C_3  and  C_4 
REMARK    3  A    between atoms: C_3  and  C_5 
REMARK    4  A    between atoms: C_4  and  C_8 
REMARK    5  A    between atoms: C_5  and  C_11 
REMARK    6  A    between atoms: C_6  and  C_7 
REMARK    7  A    between atoms: C_6  and  C_9 
REMARK    8  A    between atoms: C_7  and  C_10 
REMARK    9  A    between atoms: C_8  and  C_12 
REMARK   10  A    between atoms: C_9  and  C_13 
REMARK   11  A    between atoms: C_10  and  C_14 
REMARK   12  A    between atoms: C_11  and  C_15 
REMARK   13  A    between atoms: C_12  and  C_16 
REMARK   14  A    between atoms: C_13  and  C_17 
REMARK   15  A    between atoms: C_14  and  C_18 
REMARK   16  A    between atoms: C_18  and  C_20 
ROOT
HETATM    1  O   UNL     1      32.058 -20.696 -15.334  1.00  0.00    -0.776 OA
HETATM    2  H   UNL     1      32.306 -21.414 -15.935  1.00  0.00     0.167 HD
ENDROOT
BRANCH   1   3
HETATM    3  C   UNL     1      30.954 -19.950 -15.545  1.00  0.00     0.139 C 
HETATM    4  O   UNL     1      30.560 -19.758 -16.688  1.00  0.00    -0.650 OA
BRANCH   3   5
HETATM    5  C   UNL     1      30.228 -19.367 -14.362  1.00  0.00     0.110 C 
BRANCH   5   6
HETATM    6  C   UNL     1      31.120 -19.216 -13.122  1.00  0.00     0.010 C 
BRANCH   6   7
HETATM    7  C   UNL     1      30.332 -18.622 -11.947  1.00  0.00     0.001 C 
BRANCH   7   8
HETATM    8  C   UNL     1      30.117 -17.117 -12.138  1.00  0.00     0.000 C 
BRANCH   8   9
HETATM    9  C   UNL     1      31.227 -16.310 -11.454  1.00  0.00     0.000 C 
BRANCH   9  10
HETATM   10  C   UNL     1      32.041 -15.523 -12.487  1.00  0.00     0.004 C 
BRANCH  10  11
HETATM   11  C   UNL     1      31.211 -15.217 -13.737  1.00  0.00     0.027 C 
BRANCH  11  12
HETATM   12  C   UNL     1      30.730 -13.787 -13.682  1.00  0.00    -0.031 C 
HETATM   13  C   UNL     1      29.461 -13.371 -13.493  1.00  0.00    -0.031 C 
BRANCH  13  14
HETATM   14  C   UNL     1      28.235 -14.238 -13.302  1.00  0.00     0.027 C 
BRANCH  14  15
HETATM   15  C   UNL     1      27.476 -13.854 -12.020  1.00  0.00     0.004 C 
BRANCH  15  16
HETATM   16  C   UNL     1      28.276 -14.071 -10.719  1.00  0.00     0.000 C 
BRANCH  16  17
HETATM   17  C   UNL     1      28.668 -12.757 -10.023  1.00  0.00     0.000 C 
BRANCH  17  18
HETATM   18  C   UNL     1      29.828 -12.976  -9.041  1.00  0.00     0.000 C 
BRANCH  18  19
HETATM   19  C   UNL     1      31.173 -12.998  -9.776  1.00  0.00    -0.000 C 
BRANCH  19  20
HETATM   20  C   UNL     1      31.304 -11.798 -10.722  1.00  0.00    -0.005 C 
HETATM   21  C   UNL     1      32.345 -10.806 -10.213  1.00  0.00     0.005 C 
ENDBRANCH  19  20
ENDBRANCH  18  19
ENDBRANCH  17  18
ENDBRANCH  16  17
ENDBRANCH  15  16
ENDBRANCH  14  15
ENDBRANCH  13  14
ENDBRANCH  11  12
ENDBRANCH  10  11
ENDBRANCH   9  10
ENDBRANCH   8   9
ENDBRANCH   7   8
ENDBRANCH   6   7
ENDBRANCH   5   6
ENDBRANCH   3   5
ENDBRANCH   1   3
TORSDOF 16
ENDMDL
MODEL 20
REMARK VINA RESULT:      -4.5     25.019     26.783
REMARK  16 active torsions:
REMARK  status: ('A' for Active; 'I' for Inactive)
REMARK    1  A    between atoms: O_1  and  C_20 
REMARK    2  A    between atoms: C_3  and  C_4 
REMARK    3  A    between atoms: C_3  and  C_5 
REMARK    4  A    between atoms: C_4  and  C_8 
REMARK    5  A    between atoms: C_5  and  C_11 
REMARK    6  A    between atoms: C_6  and  C_7 
REMARK    7  A    between atoms: C_6  and  C_9 
REMARK    8  A    between atoms: C_7  and  C_10 
REMARK    9  A    between atoms: C_8  and  C_12 
REMARK   10  A    between atoms: C_9  and  C_13 
REMARK   11  A    between atoms: C_10  and  C_14 
REMARK   12  A    between atoms: C_11  and  C_15 
REMARK   13  A    between atoms: C_12  and  C_16 
REMARK   14  A    between atoms: C_13  and  C_17 
REMARK   15  A    between atoms: C_14  and  C_18 
REMARK   16  A    between atoms: C_18  and  C_20 
ROOT
HETATM    1  O   UNL     1      31.775 -21.183 -15.116  1.00  0.00    -0.776 OA
HETATM    2  H   UNL     1      31.821 -22.097 -15.431  1.00  0.00     0.167 HD
ENDROOT
BRANCH   1   3
HETATM    3  C   UNL     1      31.010 -20.261 -15.737  1.00  0.00     0.139 C 
HETATM    4  O   UNL     1      30.417 -19.419 -15.076  1.00  0.00    -0.650 OA
BRANCH   3   5
HETATM    5  C   UNL     1      30.904 -20.291 -17.239  1.00  0.00     0.110 C 
BRANCH   5   6
HETATM    6  C   UNL     1      30.124 -19.100 -17.812  1.00  0.00     0.010 C 
BRANCH   6   7
HETATM    7  C   UNL     1      30.233 -19.055 -19.341  1.00  0.00     0.001 C 
BRANCH   7   8
HETATM    8  C   UNL     1      30.495 -17.626 -19.829  1.00  0.00     0.000 C 
BRANCH   8   9
HETATM    9  C   UNL     1      31.323 -16.837 -18.808  1.00  0.00     0.000 C 
BRANCH   9  10
HETATM   10  C   UNL     1      30.749 -15.430 -18.614  1.00  0.00     0.004 C 
BRANCH  10  11
HETATM   11  C   UNL     1      29.762 -15.386 -17.444  1.00  0.00     0.027 C 
BRANCH  11  12
HETATM   12  C   UNL     1      30.407 -15.992 -16.221  1.00  0.00    -0.031 C 
HETATM   13  C   UNL     1      29.979 -15.884 -14.947  1.00  0.00    -0.031 C 
BRANCH  13  14
HETATM   14  C   UNL     1      28.765 -15.125 -14.453  1.00  0.00     0.027 C 
BRANCH  14  15
HETATM   15  C   UNL     1      29.149 -14.111 -13.362  1.00  0.00     0.004 C 
BRANCH  15  16
HETATM   16  C   UNL     1      29.166 -12.643 -13.835  1.00  0.00     0.000 C 
BRANCH  16  17
HETATM   17  C   UNL     1      28.537 -12.446 -15.224  1.00  0.00     0.000 C 
BRANCH  17  18
HETATM   18  C   UNL     1      29.588 -12.002 -16.250  1.00  0.00     0.000 C 
BRANCH  18  19
HETATM   19  C   UNL     1      30.956 -11.805 -15.585  1.00  0.00    -0.000 C 
BRANCH  19  20
HETATM   20  C   UNL     1      32.050 -12.572 -16.336  1.00  0.00    -0.005 C 
HETATM   21  C   UNL     1      32.599 -11.752 -17.498  1.00  0.00     0.005 C 
ENDBRANCH  19  20
ENDBRANCH  18  19
ENDBRANCH  17  18
ENDBRANCH  16  17
ENDBRANCH  15  16
ENDBRANCH  14  15
ENDBRANCH  13  14
ENDBRANCH  11  12
ENDBRANCH  10  11
ENDBRANCH   9  10
ENDBRANCH   8   9
ENDBRANCH   7   8
ENDBRANCH   6   7
ENDBRANCH   5   6
ENDBRANCH   3   5
ENDBRANCH   1   3
TORSDOF 16
ENDMDL
