MODEL 1
REMARK VINA RESULT:      -8.4      0.000      0.000
REMARK  5 active torsions:
REMARK  status: ('A' for Active; 'I' for Inactive)
REMARK    1  A    between atoms: S_3  and  O_4 
REMARK    2  A    between atoms: S_3  and  C_15 
REMARK    3  A    between atoms: N_9  and  C_30 
REMARK    4  A    between atoms: C_11  and  C_13 
REMARK    5  A    between atoms: C_18  and  C_25 
ROOT
HETATM    1  S   UNL     1      39.753 -12.756  -9.315  1.00  0.00    -0.068 SA
HETATM    2  N   UNL     1      40.594 -15.017 -10.057  1.00  0.00    -0.344 N 
HETATM    3  C   UNL     1      40.545 -15.025  -8.684  1.00  0.00     0.053 A 
HETATM    4  C   UNL     1      40.207 -13.801 -10.569  1.00  0.00     0.087 A 
HETATM    5  C   UNL     1      40.098 -13.848  -8.096  1.00  0.00     0.057 A 
HETATM    6  C   UNL     1      39.979 -13.687  -6.708  1.00  0.00     0.097 A 
HETATM    7  C   UNL     1      40.333 -14.786  -5.884  1.00  0.00    -0.037 A 
HETATM    8  C   UNL     1      40.887 -16.112  -7.866  1.00  0.00     0.031 A 
HETATM    9  C   UNL     1      40.961 -16.222 -10.814  1.00  0.00     0.157 C 
HETATM   10  C   UNL     1      40.783 -15.987  -6.476  1.00  0.00     0.011 A 
HETATM   11  C   UNL     1      40.241 -14.705  -4.383  1.00  0.00     0.050 C 
ENDROOT
BRANCH   4  12
HETATM   12  C   UNL     1      40.191 -13.352 -11.997  1.00  0.00    -0.001 A 
HETATM   13  C   UNL     1      39.430 -14.002 -12.996  1.00  0.00     0.035 A 
HETATM   14  C   UNL     1      39.493 -13.535 -14.305  1.00  0.00     0.034 A 
HETATM   15  S   UNL     1      38.688 -14.122 -15.643  1.00  0.00    -0.069 SA
HETATM   16  C   UNL     1      40.278 -12.462 -14.683  1.00  0.00     0.052 A 
HETATM   17  C   UNL     1      39.382 -12.990 -16.703  1.00  0.00     0.087 A 
HETATM   18  N   UNL     1      40.212 -12.134 -16.014  1.00  0.00    -0.344 N 
HETATM   19  C   UNL     1      40.923 -10.962 -16.546  1.00  0.00     0.157 C 
HETATM   20  C   UNL     1      41.051 -11.809 -13.713  1.00  0.00     0.032 A 
HETATM   21  C   UNL     1      41.012 -12.262 -12.384  1.00  0.00     0.016 A 
BRANCH  17  22
HETATM   22  C   UNL     1      39.096 -13.027 -18.172  1.00  0.00    -0.002 A 
HETATM   23  C   UNL     1      38.112 -12.230 -18.783  1.00  0.00     0.016 A 
HETATM   24  C   UNL     1      37.895 -12.280 -20.163  1.00  0.00     0.030 A 
HETATM   25  C   UNL     1      38.662 -13.124 -20.994  1.00  0.00     0.029 A 
HETATM   26  C   UNL     1      39.663 -13.906 -20.381  1.00  0.00     0.030 A 
HETATM   27  C   UNL     1      39.880 -13.851 -19.002  1.00  0.00     0.016 A 
BRANCH  25  28
HETATM   28  N   UNL     1      38.439 -13.176 -22.420  1.00  0.00    -0.390 N 
HETATM   29  C   UNL     1      37.149 -12.796 -22.984  1.00  0.00     0.149 C 
HETATM   30  C   UNL     1      39.497 -13.611 -23.322  1.00  0.00     0.149 C 
ENDBRANCH  25  28
ENDBRANCH  17  22
ENDBRANCH   4  12
BRANCH   6  31
HETATM   31  S   UNL     1      39.392 -12.124  -6.013  1.00  0.00     0.131 S 
HETATM   32  O   UNL     1      39.196 -12.192  -4.489  1.00  0.00    -0.598 OA
HETATM   33  O   UNL     1      40.461 -11.026  -6.122  1.00  0.00    -0.598 OA
BRANCH  31  34
HETATM   34  O   UNL     1      37.964 -11.385  -6.618  1.00  0.00    -0.292 OA
HETATM   35  H   UNL     1      38.250 -10.488  -6.929  1.00  0.00     0.232 HD
ENDBRANCH  31  34
ENDBRANCH   6  31
TORSDOF 5
ENDMDL
MODEL 2
REMARK VINA RESULT:      -8.4      4.799     11.836
REMARK  5 active torsions:
REMARK  status: ('A' for Active; 'I' for Inactive)
REMARK    1  A    between atoms: S_3  and  O_4 
REMARK    2  A    between atoms: S_3  and  C_15 
REMARK    3  A    between atoms: N_9  and  C_30 
REMARK    4  A    between atoms: C_11  and  C_13 
REMARK    5  A    between atoms: C_18  and  C_25 
ROOT
HETATM    1  S   UNL     1      37.708 -13.058 -17.518  1.00  0.00    -0.068 SA
HETATM    2  N   UNL     1      40.090 -12.230 -17.638  1.00  0.00    -0.344 N 
HETATM    3  C   UNL     1      39.560 -12.145 -18.903  1.00  0.00     0.053 A 
HETATM    4  C   UNL     1      39.185 -12.753 -16.744  1.00  0.00     0.087 A 
HETATM    5  C   UNL     1      38.241 -12.562 -19.024  1.00  0.00     0.057 A 
HETATM    6  C   UNL     1      37.542 -12.535 -20.240  1.00  0.00     0.097 A 
HETATM    7  C   UNL     1      38.229 -12.055 -21.385  1.00  0.00    -0.037 A 
HETATM    8  C   UNL     1      40.234 -11.664 -20.035  1.00  0.00     0.031 A 
HETATM    9  C   UNL     1      41.444 -11.740 -17.344  1.00  0.00     0.157 C 
HETATM   10  C   UNL     1      39.569 -11.624 -21.266  1.00  0.00     0.011 A 
HETATM   11  C   UNL     1      37.561 -11.991 -22.733  1.00  0.00     0.050 C 
ENDROOT
BRANCH   4  12
HETATM   12  C   UNL     1      39.385 -13.081 -15.297  1.00  0.00    -0.001 A 
HETATM   13  C   UNL     1      38.926 -12.245 -14.252  1.00  0.00     0.035 A 
HETATM   14  C   UNL     1      39.177 -12.612 -12.934  1.00  0.00     0.034 A 
HETATM   15  S   UNL     1      38.733 -11.806 -11.543  1.00  0.00    -0.069 SA
HETATM   16  C   UNL     1      39.869 -13.758 -12.592  1.00  0.00     0.052 A 
HETATM   17  C   UNL     1      39.459 -12.943 -10.511  1.00  0.00     0.087 A 
HETATM   18  N   UNL     1      40.018 -13.967 -11.243  1.00  0.00    -0.344 N 
HETATM   19  C   UNL     1      40.653 -15.188 -10.727  1.00  0.00     0.157 C 
HETATM   20  C   UNL     1      40.344 -14.596 -13.610  1.00  0.00     0.032 A 
HETATM   21  C   UNL     1      40.111 -14.248 -14.951  1.00  0.00     0.016 A 
BRANCH  17  22
HETATM   22  C   UNL     1      39.471 -12.747  -9.027  1.00  0.00    -0.002 A 
HETATM   23  C   UNL     1      40.563 -12.193  -8.335  1.00  0.00     0.016 A 
HETATM   24  C   UNL     1      40.522 -12.006  -6.951  1.00  0.00     0.030 A 
HETATM   25  C   UNL     1      39.380 -12.357  -6.198  1.00  0.00     0.029 A 
HETATM   26  C   UNL     1      38.278 -12.891  -6.898  1.00  0.00     0.030 A 
HETATM   27  C   UNL     1      38.322 -13.074  -8.283  1.00  0.00     0.016 A 
BRANCH  25  28
HETATM   28  N   UNL     1      39.337 -12.164  -4.768  1.00  0.00    -0.390 N 
HETATM   29  C   UNL     1      40.556 -11.888  -4.018  1.00  0.00     0.149 C 
HETATM   30  C   UNL     1      38.073 -12.242  -4.046  1.00  0.00     0.149 C 
ENDBRANCH  25  28
ENDBRANCH  17  22
ENDBRANCH   4  12
BRANCH   6  31
HETATM   31  S   UNL     1      35.825 -13.097 -20.326  1.00  0.00     0.131 S 
HETATM   32  O   UNL     1      34.819 -11.941 -20.209  1.00  0.00    -0.598 OA
HETATM   33  O   UNL     1      35.483 -13.644 -21.720  1.00  0.00    -0.598 OA
BRANCH  31  34
HETATM   34  O   UNL     1      35.251 -14.304 -19.246  1.00  0.00    -0.292 OA
HETATM   35  H   UNL     1      36.042 -14.568 -18.710  1.00  0.00     0.232 HD
ENDBRANCH  31  34
ENDBRANCH   6  31
TORSDOF 5
ENDMDL
MODEL 3
REMARK VINA RESULT:      -8.4      1.390      1.894
REMARK  5 active torsions:
REMARK  status: ('A' for Active; 'I' for Inactive)
REMARK    1  A    between atoms: S_3  and  O_4 
REMARK    2  A    between atoms: S_3  and  C_15 
REMARK    3  A    between atoms: N_9  and  C_30 
REMARK    4  A    between atoms: C_11  and  C_13 
REMARK    5  A    between atoms: C_18  and  C_25 
ROOT
HETATM    1  S   UNL     1      39.645 -12.803  -8.833  1.00  0.00    -0.068 SA
HETATM    2  N   UNL     1      40.503 -14.985  -9.767  1.00  0.00    -0.344 N 
HETATM    3  C   UNL     1      40.579 -15.065  -8.397  1.00  0.00     0.053 A 
HETATM    4  C   UNL     1      40.024 -13.763 -10.177  1.00  0.00     0.087 A 
HETATM    5  C   UNL     1      40.141 -13.939  -7.710  1.00  0.00     0.057 A 
HETATM    6  C   UNL     1      40.142 -13.853  -6.310  1.00  0.00     0.097 A 
HETATM    7  C   UNL     1      40.612 -14.975  -5.580  1.00  0.00    -0.037 A 
HETATM    8  C   UNL     1      41.036 -16.175  -7.672  1.00  0.00     0.031 A 
HETATM    9  C   UNL     1      40.847 -16.133 -10.617  1.00  0.00     0.157 C 
HETATM   10  C   UNL     1      41.053 -16.124  -6.274  1.00  0.00     0.011 A 
HETATM   11  C   UNL     1      40.653 -14.973  -4.075  1.00  0.00     0.050 C 
ENDROOT
BRANCH   4  12
HETATM   12  C   UNL     1      39.861 -13.244 -11.572  1.00  0.00    -0.001 A 
HETATM   13  C   UNL     1      38.675 -13.422 -12.321  1.00  0.00     0.035 A 
HETATM   14  C   UNL     1      38.617 -12.930 -13.622  1.00  0.00     0.034 A 
HETATM   15  S   UNL     1      37.339 -13.005 -14.691  1.00  0.00    -0.069 SA
HETATM   16  C   UNL     1      39.676 -12.280 -14.226  1.00  0.00     0.052 A 
HETATM   17  C   UNL     1      38.180 -12.210 -15.934  1.00  0.00     0.087 A 
HETATM   18  N   UNL     1      39.441 -11.855 -15.510  1.00  0.00    -0.344 N 
HETATM   19  C   UNL     1      40.442 -11.072 -16.249  1.00  0.00     0.157 C 
HETATM   20  C   UNL     1      40.867 -12.102 -13.508  1.00  0.00     0.032 A 
HETATM   21  C   UNL     1      40.956 -12.594 -12.195  1.00  0.00     0.016 A 
BRANCH  17  22
HETATM   22  C   UNL     1      37.561 -12.008 -17.283  1.00  0.00    -0.002 A 
HETATM   23  C   UNL     1      38.144 -12.479 -18.473  1.00  0.00     0.016 A 
HETATM   24  C   UNL     1      37.518 -12.288 -19.708  1.00  0.00     0.030 A 
HETATM   25  C   UNL     1      36.276 -11.626 -19.805  1.00  0.00     0.029 A 
HETATM   26  C   UNL     1      35.683 -11.175 -18.607  1.00  0.00     0.030 A 
HETATM   27  C   UNL     1      36.310 -11.370 -17.374  1.00  0.00     0.016 A 
BRANCH  25  28
HETATM   28  N   UNL     1      35.629 -11.429 -21.081  1.00  0.00    -0.390 N 
HETATM   29  C   UNL     1      34.715 -10.312 -21.286  1.00  0.00     0.149 C 
HETATM   30  C   UNL     1      35.877 -12.344 -22.188  1.00  0.00     0.149 C 
ENDBRANCH  25  28
ENDBRANCH  17  22
ENDBRANCH   4  12
BRANCH   6  31
HETATM   31  S   UNL     1      39.560 -12.354  -5.483  1.00  0.00     0.131 S 
HETATM   32  O   UNL     1      38.964 -12.639  -4.095  1.00  0.00    -0.598 OA
HETATM   33  O   UNL     1      40.729 -11.427  -5.115  1.00  0.00    -0.598 OA
BRANCH  31  34
HETATM   34  O   UNL     1      38.427 -11.318  -6.255  1.00  0.00    -0.292 OA
HETATM   35  H   UNL     1      37.699 -11.194  -5.594  1.00  0.00     0.232 HD
ENDBRANCH  31  34
ENDBRANCH   6  31
TORSDOF 5
ENDMDL
MODEL 4
REMARK VINA RESULT:      -8.3     21.059     24.647
REMARK  5 active torsions:
REMARK  status: ('A' for Active; 'I' for Inactive)
REMARK    1  A    between atoms: S_3  and  O_4 
REMARK    2  A    between atoms: S_3  and  C_15 
REMARK    3  A    between atoms: N_9  and  C_30 
REMARK    4  A    between atoms: C_11  and  C_13 
REMARK    5  A    between atoms: C_18  and  C_25 
ROOT
HETATM    1  S   UNL     1      38.802   9.407 -17.702  1.00  0.00    -0.068 SA
HETATM    2  N   UNL     1      39.671   7.100 -17.163  1.00  0.00    -0.344 N 
HETATM    3  C   UNL     1      39.574   7.194 -18.530  1.00  0.00     0.053 A 
HETATM    4  C   UNL     1      39.247   8.253 -16.544  1.00  0.00     0.087 A 
HETATM    5  C   UNL     1      39.107   8.411 -19.011  1.00  0.00     0.057 A 
HETATM    6  C   UNL     1      38.954   8.682 -20.378  1.00  0.00     0.097 A 
HETATM    7  C   UNL     1      39.296   7.656 -21.296  1.00  0.00    -0.037 A 
HETATM    8  C   UNL     1      39.918   6.184 -19.441  1.00  0.00     0.031 A 
HETATM    9  C   UNL     1      40.233   5.904 -16.519  1.00  0.00     0.157 C 
HETATM   10  C   UNL     1      39.775   6.418 -20.813  1.00  0.00     0.011 A 
HETATM   11  C   UNL     1      39.161   7.854 -22.783  1.00  0.00     0.050 C 
ENDROOT
BRANCH   4  12
HETATM   12  C   UNL     1      39.121   8.534 -15.079  1.00  0.00    -0.001 A 
HETATM   13  C   UNL     1      39.584   7.640 -14.085  1.00  0.00     0.035 A 
HETATM   14  C   UNL     1      39.402   7.968 -12.745  1.00  0.00     0.034 A 
HETATM   15  S   UNL     1      39.866   7.092 -11.403  1.00  0.00    -0.069 SA
HETATM   16  C   UNL     1      38.778   9.130 -12.334  1.00  0.00     0.052 A 
HETATM   17  C   UNL     1      39.234   8.221 -10.303  1.00  0.00     0.087 A 
HETATM   18  N   UNL     1      38.693   9.295 -10.974  1.00  0.00    -0.344 N 
HETATM   19  C   UNL     1      38.135  10.522 -10.388  1.00  0.00     0.157 C 
HETATM   20  C   UNL     1      38.300  10.026 -13.301  1.00  0.00     0.032 A 
HETATM   21  C   UNL     1      38.463   9.718 -14.661  1.00  0.00     0.016 A 
BRANCH  17  22
HETATM   22  C   UNL     1      39.273   7.970  -8.827  1.00  0.00    -0.002 A 
HETATM   23  C   UNL     1      39.833   6.811  -8.261  1.00  0.00     0.016 A 
HETATM   24  C   UNL     1      39.870   6.629  -6.876  1.00  0.00     0.030 A 
HETATM   25  C   UNL     1      39.356   7.604  -5.995  1.00  0.00     0.029 A 
HETATM   26  C   UNL     1      38.815   8.775  -6.565  1.00  0.00     0.030 A 
HETATM   27  C   UNL     1      38.783   8.956  -7.950  1.00  0.00     0.016 A 
BRANCH  25  28
HETATM   28  N   UNL     1      39.393   7.416  -4.563  1.00  0.00    -0.390 N 
HETATM   29  C   UNL     1      39.837   6.151  -3.992  1.00  0.00     0.149 C 
HETATM   30  C   UNL     1      38.988   8.488  -3.663  1.00  0.00     0.149 C 
ENDBRANCH  25  28
ENDBRANCH  17  22
ENDBRANCH   4  12
BRANCH   6  31
HETATM   31  S   UNL     1      38.338  10.290 -20.933  1.00  0.00     0.131 S 
HETATM   32  O   UNL     1      37.015  10.681 -20.256  1.00  0.00    -0.598 OA
HETATM   33  O   UNL     1      39.255  11.431 -20.468  1.00  0.00    -0.598 OA
BRANCH  31  34
HETATM   34  O   UNL     1      38.096  10.598 -22.606  1.00  0.00    -0.292 OA
HETATM   35  H   UNL     1      37.627   9.795 -22.951  1.00  0.00     0.232 HD
ENDBRANCH  31  34
ENDBRANCH   6  31
TORSDOF 5
ENDMDL
MODEL 5
REMARK VINA RESULT:      -8.3      4.982     11.859
REMARK  5 active torsions:
REMARK  status: ('A' for Active; 'I' for Inactive)
REMARK    1  A    between atoms: S_3  and  O_4 
REMARK    2  A    between atoms: S_3  and  C_15 
REMARK    3  A    between atoms: N_9  and  C_30 
REMARK    4  A    between atoms: C_11  and  C_13 
REMARK    5  A    between atoms: C_18  and  C_25 
ROOT
HETATM    1  S   UNL     1      37.653 -12.839 -18.099  1.00  0.00    -0.068 SA
HETATM    2  N   UNL     1      40.028 -12.009 -17.891  1.00  0.00    -0.344 N 
HETATM    3  C   UNL     1      39.717 -12.041 -19.230  1.00  0.00     0.053 A 
HETATM    4  C   UNL     1      38.981 -12.456 -17.119  1.00  0.00     0.087 A 
HETATM    5  C   UNL     1      38.434 -12.478 -19.533  1.00  0.00     0.057 A 
HETATM    6  C   UNL     1      37.949 -12.564 -20.847  1.00  0.00     0.097 A 
HETATM    7  C   UNL     1      38.822 -12.185 -21.898  1.00  0.00    -0.037 A 
HETATM    8  C   UNL     1      40.575 -11.660 -20.272  1.00  0.00     0.031 A 
HETATM    9  C   UNL     1      41.317 -11.485 -17.420  1.00  0.00     0.157 C 
HETATM   10  C   UNL     1      40.127 -11.736 -21.595  1.00  0.00     0.011 A 
HETATM   11  C   UNL     1      38.391 -12.247 -23.340  1.00  0.00     0.050 C 
ENDROOT
BRANCH   4  12
HETATM   12  C   UNL     1      38.933 -12.650 -15.635  1.00  0.00    -0.001 A 
HETATM   13  C   UNL     1      39.936 -13.345 -14.921  1.00  0.00     0.035 A 
HETATM   14  C   UNL     1      39.799 -13.503 -13.545  1.00  0.00     0.034 A 
HETATM   15  S   UNL     1      40.843 -14.266 -12.491  1.00  0.00    -0.069 SA
HETATM   16  C   UNL     1      38.716 -13.018 -12.837  1.00  0.00     0.052 A 
HETATM   17  C   UNL     1      39.869 -13.976 -11.131  1.00  0.00     0.087 A 
HETATM   18  N   UNL     1      38.749 -13.257 -11.486  1.00  0.00    -0.344 N 
HETATM   19  C   UNL     1      37.711 -12.726 -10.592  1.00  0.00     0.157 C 
HETATM   20  C   UNL     1      37.703 -12.336 -13.525  1.00  0.00     0.032 A 
HETATM   21  C   UNL     1      37.810 -12.167 -14.915  1.00  0.00     0.016 A 
BRANCH  17  22
HETATM   22  C   UNL     1      40.244 -14.507  -9.781  1.00  0.00    -0.002 A 
HETATM   23  C   UNL     1      40.594 -15.850  -9.556  1.00  0.00     0.016 A 
HETATM   24  C   UNL     1      40.961 -16.297  -8.284  1.00  0.00     0.030 A 
HETATM   25  C   UNL     1      41.003 -15.416  -7.182  1.00  0.00     0.029 A 
HETATM   26  C   UNL     1      40.674 -14.065  -7.416  1.00  0.00     0.030 A 
HETATM   27  C   UNL     1      40.310 -13.621  -8.690  1.00  0.00     0.016 A 
BRANCH  25  28
HETATM   28  N   UNL     1      41.383 -15.877  -5.867  1.00  0.00    -0.390 N 
HETATM   29  C   UNL     1      42.504 -16.793  -5.696  1.00  0.00     0.149 C 
HETATM   30  C   UNL     1      40.652 -15.437  -4.686  1.00  0.00     0.149 C 
ENDBRANCH  25  28
ENDBRANCH  17  22
ENDBRANCH   4  12
BRANCH   6  31
HETATM   31  S   UNL     1      36.266 -13.144 -21.168  1.00  0.00     0.131 S 
HETATM   32  O   UNL     1      35.870 -14.331 -20.275  1.00  0.00    -0.598 OA
HETATM   33  O   UNL     1      35.223 -12.099 -20.746  1.00  0.00    -0.598 OA
BRANCH  31  34
HETATM   34  O   UNL     1      35.791 -13.598 -22.756  1.00  0.00    -0.292 OA
HETATM   35  H   UNL     1      35.064 -12.969 -22.996  1.00  0.00     0.232 HD
ENDBRANCH  31  34
ENDBRANCH   6  31
TORSDOF 5
ENDMDL
MODEL 6
REMARK VINA RESULT:      -8.2      4.472     11.698
REMARK  5 active torsions:
REMARK  status: ('A' for Active; 'I' for Inactive)
REMARK    1  A    between atoms: S_3  and  O_4 
REMARK    2  A    between atoms: S_3  and  C_15 
REMARK    3  A    between atoms: N_9  and  C_30 
REMARK    4  A    between atoms: C_11  and  C_13 
REMARK    5  A    between atoms: C_18  and  C_25 
ROOT
HETATM    1  S   UNL     1      39.764 -12.701 -15.120  1.00  0.00    -0.068 SA
HETATM    2  N   UNL     1      37.405 -12.728 -14.222  1.00  0.00    -0.344 N 
HETATM    3  C   UNL     1      37.327 -12.540 -15.581  1.00  0.00     0.053 A 
HETATM    4  C   UNL     1      38.710 -12.810 -13.797  1.00  0.00     0.087 A 
HETATM    5  C   UNL     1      38.545 -12.499 -16.248  1.00  0.00     0.057 A 
HETATM    6  C   UNL     1      38.649 -12.322 -17.635  1.00  0.00     0.097 A 
HETATM    7  C   UNL     1      37.446 -12.181 -18.374  1.00  0.00    -0.037 A 
HETATM    8  C   UNL     1      36.139 -12.407 -16.316  1.00  0.00     0.031 A 
HETATM    9  C   UNL     1      36.195 -12.881 -13.403  1.00  0.00     0.157 C 
HETATM   10  C   UNL     1      36.204 -12.226 -17.702  1.00  0.00     0.011 A 
HETATM   11  C   UNL     1      37.459 -11.983 -19.867  1.00  0.00     0.050 C 
ENDROOT
BRANCH   4  12
HETATM   12  C   UNL     1      39.231 -12.936 -12.399  1.00  0.00    -0.001 A 
HETATM   13  C   UNL     1      39.601 -14.175 -11.829  1.00  0.00     0.035 A 
HETATM   14  C   UNL     1      40.051 -14.206 -10.512  1.00  0.00     0.034 A 
HETATM   15  S   UNL     1      40.551 -15.530  -9.629  1.00  0.00    -0.069 SA
HETATM   16  C   UNL     1      40.144 -13.074  -9.724  1.00  0.00     0.052 A 
HETATM   17  C   UNL     1      40.865 -14.624  -8.227  1.00  0.00     0.087 A 
HETATM   18  N   UNL     1      40.615 -13.288  -8.452  1.00  0.00    -0.344 N 
HETATM   19  C   UNL     1      40.852 -12.170  -7.529  1.00  0.00     0.157 C 
HETATM   20  C   UNL     1      39.771 -11.835 -10.263  1.00  0.00     0.032 A 
HETATM   21  C   UNL     1      39.308 -11.775 -11.588  1.00  0.00     0.016 A 
BRANCH  17  22
HETATM   22  C   UNL     1      41.310 -15.286  -6.960  1.00  0.00    -0.002 A 
HETATM   23  C   UNL     1      40.543 -15.280  -5.781  1.00  0.00     0.016 A 
HETATM   24  C   UNL     1      40.987 -15.932  -4.627  1.00  0.00     0.030 A 
HETATM   25  C   UNL     1      42.215 -16.627  -4.606  1.00  0.00     0.029 A 
HETATM   26  C   UNL     1      42.971 -16.650  -5.797  1.00  0.00     0.030 A 
HETATM   27  C   UNL     1      42.522 -16.000  -6.949  1.00  0.00     0.016 A 
BRANCH  25  28
HETATM   28  N   UNL     1      42.674 -17.301  -3.414  1.00  0.00    -0.390 N 
HETATM   29  C   UNL     1      43.733 -16.724  -2.595  1.00  0.00     0.149 C 
HETATM   30  C   UNL     1      42.090 -18.573  -3.007  1.00  0.00     0.149 C 
ENDBRANCH  25  28
ENDBRANCH  17  22
ENDBRANCH   4  12
BRANCH   6  31
HETATM   31  S   UNL     1      40.270 -12.276 -18.436  1.00  0.00     0.131 S 
HETATM   32  O   UNL     1      41.279 -11.400 -17.677  1.00  0.00    -0.598 OA
HETATM   33  O   UNL     1      40.964 -13.645 -18.375  1.00  0.00    -0.598 OA
BRANCH  31  34
HETATM   34  O   UNL     1      40.413 -11.803 -20.082  1.00  0.00    -0.292 OA
HETATM   35  H   UNL     1      39.781 -11.047 -20.189  1.00  0.00     0.232 HD
ENDBRANCH  31  34
ENDBRANCH   6  31
TORSDOF 5
ENDMDL
MODEL 7
REMARK VINA RESULT:      -8.2      5.501     12.104
REMARK  5 active torsions:
REMARK  status: ('A' for Active; 'I' for Inactive)
REMARK    1  A    between atoms: S_3  and  O_4 
REMARK    2  A    between atoms: S_3  and  C_15 
REMARK    3  A    between atoms: N_9  and  C_30 
REMARK    4  A    between atoms: C_11  and  C_13 
REMARK    5  A    between atoms: C_18  and  C_25 
ROOT
HETATM    1  S   UNL     1      39.750 -12.184 -19.180  1.00  0.00    -0.068 SA
HETATM    2  N   UNL     1      37.310 -12.216 -18.533  1.00  0.00    -0.344 N 
HETATM    3  C   UNL     1      37.373 -12.167 -19.905  1.00  0.00     0.053 A 
HETATM    4  C   UNL     1      38.564 -12.203 -17.969  1.00  0.00     0.087 A 
HETATM    5  C   UNL     1      38.654 -12.144 -20.442  1.00  0.00     0.057 A 
HETATM    6  C   UNL     1      38.900 -12.101 -21.822  1.00  0.00     0.097 A 
HETATM    7  C   UNL     1      37.780 -12.083 -22.693  1.00  0.00    -0.037 A 
HETATM    8  C   UNL     1      36.267 -12.156 -20.769  1.00  0.00     0.031 A 
HETATM    9  C   UNL     1      36.023 -12.335 -17.833  1.00  0.00     0.157 C 
HETATM   10  C   UNL     1      36.475 -12.112 -22.152  1.00  0.00     0.011 A 
HETATM   11  C   UNL     1      37.947 -12.035 -24.188  1.00  0.00     0.050 C 
ENDROOT
BRANCH   4  12
HETATM   12  C   UNL     1      38.934 -12.168 -16.519  1.00  0.00    -0.001 A 
HETATM   13  C   UNL     1      38.056 -12.590 -15.494  1.00  0.00     0.035 A 
HETATM   14  C   UNL     1      38.472 -12.499 -14.169  1.00  0.00     0.034 A 
HETATM   15  S   UNL     1      37.630 -12.940 -12.798  1.00  0.00    -0.069 SA
HETATM   16  C   UNL     1      39.708 -12.003 -13.801  1.00  0.00     0.052 A 
HETATM   17  C   UNL     1      38.871 -12.463 -11.740  1.00  0.00     0.087 A 
HETATM   18  N   UNL     1      39.953 -11.994 -12.451  1.00  0.00    -0.344 N 
HETATM   19  C   UNL     1      41.257 -11.577 -11.916  1.00  0.00     0.157 C 
HETATM   20  C   UNL     1      40.591 -11.567 -14.799  1.00  0.00     0.032 A 
HETATM   21  C   UNL     1      40.196 -11.640 -16.145  1.00  0.00     0.016 A 
BRANCH  17  22
HETATM   22  C   UNL     1      38.697 -12.544 -10.255  1.00  0.00    -0.002 A 
HETATM   23  C   UNL     1      37.621 -11.948  -9.575  1.00  0.00     0.016 A 
HETATM   24  C   UNL     1      37.485 -12.069  -8.189  1.00  0.00     0.030 A 
HETATM   25  C   UNL     1      38.417 -12.803  -7.424  1.00  0.00     0.029 A 
HETATM   26  C   UNL     1      39.483 -13.418  -8.112  1.00  0.00     0.030 A 
HETATM   27  C   UNL     1      39.614 -13.297  -9.498  1.00  0.00     0.016 A 
BRANCH  25  28
HETATM   28  N   UNL     1      38.277 -12.929  -5.992  1.00  0.00    -0.390 N 
HETATM   29  C   UNL     1      39.225 -13.723  -5.220  1.00  0.00     0.149 C 
HETATM   30  C   UNL     1      37.186 -12.265  -5.291  1.00  0.00     0.149 C 
ENDBRANCH  25  28
ENDBRANCH  17  22
ENDBRANCH   4  12
BRANCH   6  31
HETATM   31  S   UNL     1      40.596 -12.070 -22.451  1.00  0.00     0.131 S 
HETATM   32  O   UNL     1      41.273 -13.449 -22.392  1.00  0.00    -0.598 OA
HETATM   33  O   UNL     1      40.629 -11.792 -23.961  1.00  0.00    -0.598 OA
BRANCH  31  34
HETATM   34  O   UNL     1      41.747 -10.976 -21.795  1.00  0.00    -0.292 OA
HETATM   35  H   UNL     1      42.067 -11.408 -20.962  1.00  0.00     0.232 HD
ENDBRANCH  31  34
ENDBRANCH   6  31
TORSDOF 5
ENDMDL
MODEL 8
REMARK VINA RESULT:      -8.2      2.368      3.047
REMARK  5 active torsions:
REMARK  status: ('A' for Active; 'I' for Inactive)
REMARK    1  A    between atoms: S_3  and  O_4 
REMARK    2  A    between atoms: S_3  and  C_15 
REMARK    3  A    between atoms: N_9  and  C_30 
REMARK    4  A    between atoms: C_11  and  C_13 
REMARK    5  A    between atoms: C_18  and  C_25 
ROOT
HETATM    1  S   UNL     1      39.683 -12.632 -10.666  1.00  0.00    -0.068 SA
HETATM    2  N   UNL     1      37.286 -13.096 -11.309  1.00  0.00    -0.344 N 
HETATM    3  C   UNL     1      37.323 -12.935  -9.945  1.00  0.00     0.053 A 
HETATM    4  C   UNL     1      38.539 -12.984 -11.866  1.00  0.00     0.087 A 
HETATM    5  C   UNL     1      38.578 -12.669  -9.411  1.00  0.00     0.057 A 
HETATM    6  C   UNL     1      38.795 -12.470  -8.040  1.00  0.00     0.097 A 
HETATM    7  C   UNL     1      37.672 -12.546  -7.176  1.00  0.00    -0.037 A 
HETATM    8  C   UNL     1      36.214 -13.002  -9.089  1.00  0.00     0.031 A 
HETATM    9  C   UNL     1      36.014 -13.293 -12.020  1.00  0.00     0.157 C 
HETATM   10  C   UNL     1      36.394 -12.811  -7.715  1.00  0.00     0.011 A 
HETATM   11  C   UNL     1      37.809 -12.349  -5.689  1.00  0.00     0.050 C 
ENDROOT
BRANCH   4  12
HETATM   12  C   UNL     1      38.945 -13.168 -13.296  1.00  0.00    -0.001 A 
HETATM   13  C   UNL     1      38.444 -12.360 -14.343  1.00  0.00     0.035 A 
HETATM   14  C   UNL     1      38.854 -12.616 -15.648  1.00  0.00     0.034 A 
HETATM   15  S   UNL     1      38.416 -11.805 -17.038  1.00  0.00    -0.069 SA
HETATM   16  C   UNL     1      39.727 -13.636 -15.975  1.00  0.00     0.052 A 
HETATM   17  C   UNL     1      39.349 -12.798 -18.052  1.00  0.00     0.087 A 
HETATM   18  N   UNL     1      40.029 -13.738 -17.310  1.00  0.00    -0.344 N 
HETATM   19  C   UNL     1      41.010 -14.718 -17.797  1.00  0.00     0.157 C 
HETATM   20  C   UNL     1      40.228 -14.457 -14.955  1.00  0.00     0.032 A 
HETATM   21  C   UNL     1      39.827 -14.227 -13.629  1.00  0.00     0.016 A 
BRANCH  17  22
HETATM   22  C   UNL     1      39.335 -12.619 -19.539  1.00  0.00    -0.002 A 
HETATM   23  C   UNL     1      40.215 -11.755 -20.216  1.00  0.00     0.016 A 
HETATM   24  C   UNL     1      40.183 -11.636 -21.607  1.00  0.00     0.030 A 
HETATM   25  C   UNL     1      39.274 -12.385 -22.385  1.00  0.00     0.029 A 
HETATM   26  C   UNL     1      38.409 -13.267 -21.705  1.00  0.00     0.030 A 
HETATM   27  C   UNL     1      38.446 -13.386 -20.314  1.00  0.00     0.016 A 
BRANCH  25  28
HETATM   28  N   UNL     1      39.241 -12.263 -23.824  1.00  0.00    -0.390 N 
HETATM   29  C   UNL     1      40.418 -11.818 -24.559  1.00  0.00     0.149 C 
HETATM   30  C   UNL     1      38.029 -12.581 -24.568  1.00  0.00     0.149 C 
ENDBRANCH  25  28
ENDBRANCH  17  22
ENDBRANCH   4  12
BRANCH   6  31
HETATM   31  S   UNL     1      40.457 -12.130  -7.414  1.00  0.00     0.131 S 
HETATM   32  O   UNL     1      41.312 -13.401  -7.287  1.00  0.00    -0.598 OA
HETATM   33  O   UNL     1      41.283 -11.321  -8.426  1.00  0.00    -0.598 OA
BRANCH  31  34
HETATM   34  O   UNL     1      40.673 -11.293  -5.928  1.00  0.00    -0.292 OA
HETATM   35  H   UNL     1      40.982 -11.983  -5.287  1.00  0.00     0.232 HD
ENDBRANCH  31  34
ENDBRANCH   6  31
TORSDOF 5
ENDMDL
MODEL 9
REMARK VINA RESULT:      -8.2      1.604      2.512
REMARK  5 active torsions:
REMARK  status: ('A' for Active; 'I' for Inactive)
REMARK    1  A    between atoms: S_3  and  O_4 
REMARK    2  A    between atoms: S_3  and  C_15 
REMARK    3  A    between atoms: N_9  and  C_30 
REMARK    4  A    between atoms: C_11  and  C_13 
REMARK    5  A    between atoms: C_18  and  C_25 
ROOT
HETATM    1  S   UNL     1      40.124 -13.785  -8.171  1.00  0.00    -0.068 SA
HETATM    2  N   UNL     1      40.866 -16.197  -8.231  1.00  0.00    -0.344 N 
HETATM    3  C   UNL     1      40.771 -15.827  -6.911  1.00  0.00     0.053 A 
HETATM    4  C   UNL     1      40.563 -15.152  -9.072  1.00  0.00     0.087 A 
HETATM    5  C   UNL     1      40.369 -14.517  -6.687  1.00  0.00     0.057 A 
HETATM    6  C   UNL     1      40.213 -13.977  -5.402  1.00  0.00     0.097 A 
HETATM    7  C   UNL     1      40.480 -14.822  -4.294  1.00  0.00    -0.037 A 
HETATM    8  C   UNL     1      41.027 -16.663  -5.814  1.00  0.00     0.031 A 
HETATM    9  C   UNL     1      41.193 -17.577  -8.615  1.00  0.00     0.157 C 
HETATM   10  C   UNL     1      40.884 -16.158  -4.517  1.00  0.00     0.011 A 
HETATM   11  C   UNL     1      40.342 -14.330  -2.878  1.00  0.00     0.050 C 
ENDROOT
BRANCH   4  12
HETATM   12  C   UNL     1      40.618 -15.110 -10.568  1.00  0.00    -0.001 A 
HETATM   13  C   UNL     1      40.164 -14.003 -11.320  1.00  0.00     0.035 A 
HETATM   14  C   UNL     1      40.227 -14.058 -12.709  1.00  0.00     0.034 A 
HETATM   15  S   UNL     1      39.767 -12.887 -13.805  1.00  0.00    -0.069 SA
HETATM   16  C   UNL     1      40.709 -15.156 -13.396  1.00  0.00     0.052 A 
HETATM   17  C   UNL     1      40.179 -13.825 -15.159  1.00  0.00     0.087 A 
HETATM   18  N   UNL     1      40.706 -15.035 -14.763  1.00  0.00    -0.344 N 
HETATM   19  C   UNL     1      41.269 -16.085 -15.623  1.00  0.00     0.157 C 
HETATM   20  C   UNL     1      41.154 -16.271 -12.672  1.00  0.00     0.032 A 
HETATM   21  C   UNL     1      41.095 -16.247 -11.269  1.00  0.00     0.016 A 
BRANCH  17  22
HETATM   22  C   UNL     1      39.927 -13.331 -16.550  1.00  0.00    -0.002 A 
HETATM   23  C   UNL     1      38.700 -13.505 -17.215  1.00  0.00     0.016 A 
HETATM   24  C   UNL     1      38.501 -13.006 -18.505  1.00  0.00     0.030 A 
HETATM   25  C   UNL     1      39.519 -12.302 -19.183  1.00  0.00     0.029 A 
HETATM   26  C   UNL     1      40.740 -12.110 -18.505  1.00  0.00     0.030 A 
HETATM   27  C   UNL     1      40.935 -12.607 -17.214  1.00  0.00     0.016 A 
BRANCH  25  28
HETATM   28  N   UNL     1      39.313 -11.786 -20.516  1.00  0.00    -0.390 N 
HETATM   29  C   UNL     1      40.382 -11.081 -21.213  1.00  0.00     0.149 C 
HETATM   30  C   UNL     1      38.032 -11.958 -21.190  1.00  0.00     0.149 C 
ENDBRANCH  25  28
ENDBRANCH  17  22
ENDBRANCH   4  12
BRANCH   6  31
HETATM   31  S   UNL     1      39.689 -12.260  -5.185  1.00  0.00     0.131 S 
HETATM   32  O   UNL     1      38.513 -12.121  -4.204  1.00  0.00    -0.598 OA
HETATM   33  O   UNL     1      40.767 -11.431  -4.471  1.00  0.00    -0.598 OA
BRANCH  31  34
HETATM   34  O   UNL     1      39.254 -11.305  -6.546  1.00  0.00    -0.292 OA
HETATM   35  H   UNL     1      39.656 -10.415  -6.375  1.00  0.00     0.232 HD
ENDBRANCH  31  34
ENDBRANCH   6  31
TORSDOF 5
ENDMDL
MODEL 10
REMARK VINA RESULT:      -8.1      2.467      4.597
REMARK  5 active torsions:
REMARK  status: ('A' for Active; 'I' for Inactive)
REMARK    1  A    between atoms: S_3  and  O_4 
REMARK    2  A    between atoms: S_3  and  C_15 
REMARK    3  A    between atoms: N_9  and  C_30 
REMARK    4  A    between atoms: C_11  and  C_13 
REMARK    5  A    between atoms: C_18  and  C_25 
ROOT
HETATM    1  S   UNL     1      39.654 -12.777 -13.699  1.00  0.00    -0.068 SA
HETATM    2  N   UNL     1      40.522 -14.957 -14.630  1.00  0.00    -0.344 N 
HETATM    3  C   UNL     1      40.598 -15.034 -13.260  1.00  0.00     0.053 A 
HETATM    4  C   UNL     1      40.037 -13.738 -15.042  1.00  0.00     0.087 A 
HETATM    5  C   UNL     1      40.156 -13.909 -12.575  1.00  0.00     0.057 A 
HETATM    6  C   UNL     1      40.157 -13.821 -11.175  1.00  0.00     0.097 A 
HETATM    7  C   UNL     1      40.633 -14.939 -10.444  1.00  0.00    -0.037 A 
HETATM    8  C   UNL     1      41.061 -16.141 -12.534  1.00  0.00     0.031 A 
HETATM    9  C   UNL     1      40.871 -16.105 -15.479  1.00  0.00     0.157 C 
HETATM   10  C   UNL     1      41.079 -16.087 -11.136  1.00  0.00     0.011 A 
HETATM   11  C   UNL     1      40.674 -14.935  -8.939  1.00  0.00     0.050 C 
ENDROOT
BRANCH   4  12
HETATM   12  C   UNL     1      39.872 -13.222 -16.438  1.00  0.00    -0.001 A 
HETATM   13  C   UNL     1      38.683 -13.400 -17.184  1.00  0.00     0.035 A 
HETATM   14  C   UNL     1      38.623 -12.911 -18.485  1.00  0.00     0.034 A 
HETATM   15  S   UNL     1      37.342 -12.988 -19.551  1.00  0.00    -0.069 SA
HETATM   16  C   UNL     1      39.681 -12.263 -19.094  1.00  0.00     0.052 A 
HETATM   17  C   UNL     1      38.181 -12.196 -20.798  1.00  0.00     0.087 A 
HETATM   18  N   UNL     1      39.444 -11.841 -20.378  1.00  0.00    -0.344 N 
HETATM   19  C   UNL     1      40.443 -11.061 -21.121  1.00  0.00     0.157 C 
HETATM   20  C   UNL     1      40.874 -12.086 -18.379  1.00  0.00     0.032 A 
HETATM   21  C   UNL     1      40.966 -12.574 -17.065  1.00  0.00     0.016 A 
BRANCH  17  22
HETATM   22  C   UNL     1      37.558 -11.996 -22.146  1.00  0.00    -0.002 A 
HETATM   23  C   UNL     1      38.141 -12.465 -23.337  1.00  0.00     0.016 A 
HETATM   24  C   UNL     1      37.513 -12.277 -24.571  1.00  0.00     0.030 A 
HETATM   25  C   UNL     1      36.268 -11.620 -24.666  1.00  0.00     0.029 A 
HETATM   26  C   UNL     1      35.676 -11.171 -23.467  1.00  0.00     0.030 A 
HETATM   27  C   UNL     1      36.305 -11.364 -22.235  1.00  0.00     0.016 A 
BRANCH  25  28
HETATM   28  N   UNL     1      35.618 -11.425 -25.941  1.00  0.00    -0.390 N 
HETATM   29  C   UNL     1      34.266 -10.886 -26.011  1.00  0.00     0.149 C 
HETATM   30  C   UNL     1      36.302 -11.766 -27.183  1.00  0.00     0.149 C 
ENDBRANCH  25  28
ENDBRANCH  17  22
ENDBRANCH   4  12
BRANCH   6  31
HETATM   31  S   UNL     1      39.569 -12.323 -10.350  1.00  0.00     0.131 S 
HETATM   32  O   UNL     1      39.016 -12.602  -8.943  1.00  0.00    -0.598 OA
HETATM   33  O   UNL     1      40.729 -11.369 -10.025  1.00  0.00    -0.598 OA
BRANCH  31  34
HETATM   34  O   UNL     1      38.396 -11.318 -11.104  1.00  0.00    -0.292 OA
HETATM   35  H   UNL     1      38.804 -10.415 -11.122  1.00  0.00     0.232 HD
ENDBRANCH  31  34
ENDBRANCH   6  31
TORSDOF 5
ENDMDL
MODEL 11
REMARK VINA RESULT:      -8.1      5.589     11.922
REMARK  5 active torsions:
REMARK  status: ('A' for Active; 'I' for Inactive)
REMARK    1  A    between atoms: S_3  and  O_4 
REMARK    2  A    between atoms: S_3  and  C_15 
REMARK    3  A    between atoms: N_9  and  C_30 
REMARK    4  A    between atoms: C_11  and  C_13 
REMARK    5  A    between atoms: C_18  and  C_25 
ROOT
HETATM    1  S   UNL     1      39.932 -12.745 -19.162  1.00  0.00    -0.068 SA
HETATM    2  N   UNL     1      37.543 -12.842 -18.353  1.00  0.00    -0.344 N 
HETATM    3  C   UNL     1      37.511 -12.577 -19.701  1.00  0.00     0.053 A 
HETATM    4  C   UNL     1      38.833 -12.937 -17.886  1.00  0.00     0.087 A 
HETATM    5  C   UNL     1      38.752 -12.488 -20.319  1.00  0.00     0.057 A 
HETATM    6  C   UNL     1      38.903 -12.231 -21.690  1.00  0.00     0.097 A 
HETATM    7  C   UNL     1      37.726 -12.058 -22.462  1.00  0.00    -0.037 A 
HETATM    8  C   UNL     1      36.349 -12.412 -20.469  1.00  0.00     0.031 A 
HETATM    9  C   UNL     1      36.306 -13.052 -17.588  1.00  0.00     0.157 C 
HETATM   10  C   UNL     1      36.462 -12.152 -21.839  1.00  0.00     0.011 A 
HETATM   11  C   UNL     1      37.790 -11.775 -23.940  1.00  0.00     0.050 C 
ENDROOT
BRANCH   4  12
HETATM   12  C   UNL     1      39.305 -13.139 -16.479  1.00  0.00    -0.001 A 
HETATM   13  C   UNL     1      39.820 -14.371 -16.014  1.00  0.00     0.035 A 
HETATM   14  C   UNL     1      40.211 -14.479 -14.683  1.00  0.00     0.034 A 
HETATM   15  S   UNL     1      40.853 -15.809 -13.907  1.00  0.00    -0.069 SA
HETATM   16  C   UNL     1      40.112 -13.435 -13.783  1.00  0.00     0.052 A 
HETATM   17  C   UNL     1      40.976 -15.022 -12.407  1.00  0.00     0.087 A 
HETATM   18  N   UNL     1      40.552 -13.716 -12.514  1.00  0.00    -0.344 N 
HETATM   19  C   UNL     1      40.590 -12.680 -11.472  1.00  0.00     0.157 C 
HETATM   20  C   UNL     1      39.593 -12.207 -14.218  1.00  0.00     0.032 A 
HETATM   21  C   UNL     1      39.183 -12.071 -15.555  1.00  0.00     0.016 A 
BRANCH  17  22
HETATM   22  C   UNL     1      41.454 -15.749 -11.188  1.00  0.00    -0.002 A 
HETATM   23  C   UNL     1      40.654 -15.942 -10.047  1.00  0.00     0.016 A 
HETATM   24  C   UNL     1      41.133 -16.647  -8.940  1.00  0.00     0.030 A 
HETATM   25  C   UNL     1      42.432 -17.199  -8.929  1.00  0.00     0.029 A 
HETATM   26  C   UNL     1      43.224 -17.022 -10.083  1.00  0.00     0.030 A 
HETATM   27  C   UNL     1      42.740 -16.319 -11.190  1.00  0.00     0.016 A 
BRANCH  25  28
HETATM   28  N   UNL     1      42.928 -17.928  -7.785  1.00  0.00    -0.390 N 
HETATM   29  C   UNL     1      42.090 -18.911  -7.111  1.00  0.00     0.149 C 
HETATM   30  C   UNL     1      44.275 -17.693  -7.282  1.00  0.00     0.149 C 
ENDBRANCH  25  28
ENDBRANCH  17  22
ENDBRANCH   4  12
BRANCH   6  31
HETATM   31  S   UNL     1      40.551 -12.126 -22.428  1.00  0.00     0.131 S 
HETATM   32  O   UNL     1      41.267 -13.486 -22.470  1.00  0.00    -0.598 OA
HETATM   33  O   UNL     1      40.474 -11.789 -23.925  1.00  0.00    -0.598 OA
BRANCH  31  34
HETATM   34  O   UNL     1      41.714 -11.025 -21.806  1.00  0.00    -0.292 OA
HETATM   35  H   UNL     1      42.031 -10.513 -22.593  1.00  0.00     0.232 HD
ENDBRANCH  31  34
ENDBRANCH   6  31
TORSDOF 5
ENDMDL
MODEL 12
REMARK VINA RESULT:      -8.1      3.265      3.780
REMARK  5 active torsions:
REMARK  status: ('A' for Active; 'I' for Inactive)
REMARK    1  A    between atoms: S_3  and  O_4 
REMARK    2  A    between atoms: S_3  and  C_15 
REMARK    3  A    between atoms: N_9  and  C_30 
REMARK    4  A    between atoms: C_11  and  C_13 
REMARK    5  A    between atoms: C_18  and  C_25 
ROOT
HETATM    1  S   UNL     1      40.525 -15.595 -11.793  1.00  0.00    -0.068 SA
HETATM    2  N   UNL     1      39.804 -13.366 -10.854  1.00  0.00    -0.344 N 
HETATM    3  C   UNL     1      40.244 -14.134  -9.803  1.00  0.00     0.053 A 
HETATM    4  C   UNL     1      39.869 -14.053 -12.044  1.00  0.00     0.087 A 
HETATM    5  C   UNL     1      40.685 -15.407 -10.139  1.00  0.00     0.057 A 
HETATM    6  C   UNL     1      41.175 -16.319  -9.192  1.00  0.00     0.097 A 
HETATM    7  C   UNL     1      41.214 -15.904  -7.836  1.00  0.00    -0.037 A 
HETATM    8  C   UNL     1      40.291 -13.724  -8.462  1.00  0.00     0.031 A 
HETATM    9  C   UNL     1      39.392 -11.969 -10.658  1.00  0.00     0.157 C 
HETATM   10  C   UNL     1      40.771 -14.608  -7.489  1.00  0.00     0.011 A 
HETATM   11  C   UNL     1      41.721 -16.815  -6.749  1.00  0.00     0.050 C 
ENDROOT
BRANCH   4  12
HETATM   12  C   UNL     1      39.419 -13.612 -13.402  1.00  0.00    -0.001 A 
HETATM   13  C   UNL     1      40.101 -13.969 -14.588  1.00  0.00     0.035 A 
HETATM   14  C   UNL     1      39.629 -13.494 -15.808  1.00  0.00     0.034 A 
HETATM   15  S   UNL     1      40.249 -13.781 -17.330  1.00  0.00    -0.069 SA
HETATM   16  C   UNL     1      38.522 -12.675 -15.917  1.00  0.00     0.052 A 
HETATM   17  C   UNL     1      39.085 -12.824 -18.113  1.00  0.00     0.087 A 
HETATM   18  N   UNL     1      38.194 -12.308 -17.199  1.00  0.00    -0.344 N 
HETATM   19  C   UNL     1      36.991 -11.512 -17.479  1.00  0.00     0.157 C 
HETATM   20  C   UNL     1      37.836 -12.297 -14.754  1.00  0.00     0.032 A 
HETATM   21  C   UNL     1      38.293 -12.756 -13.508  1.00  0.00     0.016 A 
BRANCH  17  22
HETATM   22  C   UNL     1      39.133 -12.602 -19.593  1.00  0.00    -0.002 A 
HETATM   23  C   UNL     1      40.073 -11.759 -20.212  1.00  0.00     0.016 A 
HETATM   24  C   UNL     1      40.097 -11.600 -21.600  1.00  0.00     0.030 A 
HETATM   25  C   UNL     1      39.185 -12.285 -22.432  1.00  0.00     0.029 A 
HETATM   26  C   UNL     1      38.258 -13.146 -21.809  1.00  0.00     0.030 A 
HETATM   27  C   UNL     1      38.239 -13.306 -20.421  1.00  0.00     0.016 A 
BRANCH  25  28
HETATM   28  N   UNL     1      39.209 -12.121 -23.866  1.00  0.00    -0.390 N 
HETATM   29  C   UNL     1      37.984 -12.240 -24.648  1.00  0.00     0.149 C 
HETATM   30  C   UNL     1      40.457 -11.834 -24.560  1.00  0.00     0.149 C 
ENDBRANCH  25  28
ENDBRANCH  17  22
ENDBRANCH   4  12
BRANCH   6  31
HETATM   31  S   UNL     1      41.731 -17.963  -9.702  1.00  0.00     0.131 S 
HETATM   32  O   UNL     1      41.605 -18.185 -11.218  1.00  0.00    -0.598 OA
HETATM   33  O   UNL     1      43.245 -18.128  -9.506  1.00  0.00    -0.598 OA
BRANCH  31  34
HETATM   34  O   UNL     1      41.055 -19.371  -8.983  1.00  0.00    -0.292 OA
HETATM   35  H   UNL     1      40.824 -19.962  -9.744  1.00  0.00     0.232 HD
ENDBRANCH  31  34
ENDBRANCH   6  31
TORSDOF 5
ENDMDL
MODEL 13
REMARK VINA RESULT:      -8.1      2.584      3.292
REMARK  5 active torsions:
REMARK  status: ('A' for Active; 'I' for Inactive)
REMARK    1  A    between atoms: S_3  and  O_4 
REMARK    2  A    between atoms: S_3  and  C_15 
REMARK    3  A    between atoms: N_9  and  C_30 
REMARK    4  A    between atoms: C_11  and  C_13 
REMARK    5  A    between atoms: C_18  and  C_25 
ROOT
HETATM    1  S   UNL     1      37.617 -12.690 -11.078  1.00  0.00    -0.068 SA
HETATM    2  N   UNL     1      40.004 -12.004 -11.531  1.00  0.00    -0.344 N 
HETATM    3  C   UNL     1      39.829 -12.014 -10.168  1.00  0.00     0.053 A 
HETATM    4  C   UNL     1      38.844 -12.334 -12.192  1.00  0.00     0.087 A 
HETATM    5  C   UNL     1      38.560 -12.374  -9.733  1.00  0.00     0.057 A 
HETATM    6  C   UNL     1      38.210 -12.444  -8.376  1.00  0.00     0.097 A 
HETATM    7  C   UNL     1      39.211 -12.130  -7.420  1.00  0.00    -0.037 A 
HETATM    8  C   UNL     1      40.818 -11.712  -9.220  1.00  0.00     0.031 A 
HETATM    9  C   UNL     1      41.318 -11.730 -12.129  1.00  0.00     0.157 C 
HETATM   10  C   UNL     1      40.505 -11.769  -7.857  1.00  0.00     0.011 A 
HETATM   11  C   UNL     1      38.927 -12.174  -5.942  1.00  0.00     0.050 C 
ENDROOT
BRANCH   4  12
HETATM   12  C   UNL     1      38.587 -12.366 -13.666  1.00  0.00    -0.001 A 
HETATM   13  C   UNL     1      39.582 -12.711 -14.610  1.00  0.00     0.035 A 
HETATM   14  C   UNL     1      39.265 -12.689 -15.965  1.00  0.00     0.034 A 
HETATM   15  S   UNL     1      40.253 -13.062 -17.256  1.00  0.00    -0.069 SA
HETATM   16  C   UNL     1      38.016 -12.334 -16.438  1.00  0.00     0.052 A 
HETATM   17  C   UNL     1      39.056 -12.739 -18.417  1.00  0.00     0.087 A 
HETATM   18  N   UNL     1      37.878 -12.375 -17.803  1.00  0.00    -0.344 N 
HETATM   19  C   UNL     1      36.584 -12.109 -18.447  1.00  0.00     0.157 C 
HETATM   20  C   UNL     1      37.016 -11.976 -15.523  1.00  0.00     0.032 A 
HETATM   21  C   UNL     1      37.310 -11.982 -14.149  1.00  0.00     0.016 A 
BRANCH  17  22
HETATM   22  C   UNL     1      39.353 -12.829 -19.882  1.00  0.00    -0.002 A 
HETATM   23  C   UNL     1      39.133 -13.994 -20.639  1.00  0.00     0.016 A 
HETATM   24  C   UNL     1      39.402 -14.026 -22.010  1.00  0.00     0.030 A 
HETATM   25  C   UNL     1      39.895 -12.889 -22.686  1.00  0.00     0.029 A 
HETATM   26  C   UNL     1      40.093 -11.716 -21.928  1.00  0.00     0.030 A 
HETATM   27  C   UNL     1      39.819 -11.687 -20.558  1.00  0.00     0.016 A 
BRANCH  25  28
HETATM   28  N   UNL     1      40.173 -12.921 -24.103  1.00  0.00    -0.390 N 
HETATM   29  C   UNL     1      40.443 -11.690 -24.835  1.00  0.00     0.149 C 
HETATM   30  C   UNL     1      40.188 -14.185 -24.828  1.00  0.00     0.149 C 
ENDBRANCH  25  28
ENDBRANCH  17  22
ENDBRANCH   4  12
BRANCH   6  31
HETATM   31  S   UNL     1      36.536 -12.917  -7.883  1.00  0.00     0.131 S 
HETATM   32  O   UNL     1      36.502 -13.632  -6.522  1.00  0.00    -0.598 OA
HETATM   33  O   UNL     1      35.669 -11.684  -7.588  1.00  0.00    -0.598 OA
BRANCH  31  34
HETATM   34  O   UNL     1      35.563 -13.880  -8.922  1.00  0.00    -0.292 OA
HETATM   35  H   UNL     1      35.002 -14.428  -8.315  1.00  0.00     0.232 HD
ENDBRANCH  31  34
ENDBRANCH   6  31
TORSDOF 5
ENDMDL
MODEL 14
REMARK VINA RESULT:      -8.0      2.597      3.564
REMARK  5 active torsions:
REMARK  status: ('A' for Active; 'I' for Inactive)
REMARK    1  A    between atoms: S_3  and  O_4 
REMARK    2  A    between atoms: S_3  and  C_15 
REMARK    3  A    between atoms: N_9  and  C_30 
REMARK    4  A    between atoms: C_11  and  C_13 
REMARK    5  A    between atoms: C_18  and  C_25 
ROOT
HETATM    1  S   UNL     1      41.065 -15.368  -7.947  1.00  0.00    -0.068 SA
HETATM    2  N   UNL     1      39.490 -13.405  -8.140  1.00  0.00    -0.344 N 
HETATM    3  C   UNL     1      39.627 -13.695  -6.803  1.00  0.00     0.053 A 
HETATM    4  C   UNL     1      40.213 -14.274  -8.922  1.00  0.00     0.087 A 
HETATM    5  C   UNL     1      40.469 -14.760  -6.508  1.00  0.00     0.057 A 
HETATM    6  C   UNL     1      40.728 -15.185  -5.197  1.00  0.00     0.097 A 
HETATM    7  C   UNL     1      40.094 -14.484  -4.139  1.00  0.00    -0.037 A 
HETATM    8  C   UNL     1      39.008 -12.999  -5.754  1.00  0.00     0.031 A 
HETATM    9  C   UNL     1      38.703 -12.250  -8.593  1.00  0.00     0.157 C 
HETATM   10  C   UNL     1      39.241 -13.397  -4.433  1.00  0.00     0.011 A 
HETATM   11  C   UNL     1      40.310 -14.871  -2.699  1.00  0.00     0.050 C 
ENDROOT
BRANCH   4  12
HETATM   12  C   UNL     1      40.277 -14.354 -10.416  1.00  0.00    -0.001 A 
HETATM   13  C   UNL     1      40.119 -13.223 -11.250  1.00  0.00     0.035 A 
HETATM   14  C   UNL     1      40.165 -13.390 -12.631  1.00  0.00     0.034 A 
HETATM   15  S   UNL     1      40.018 -12.221 -13.811  1.00  0.00    -0.069 SA
HETATM   16  C   UNL     1      40.350 -14.620 -13.233  1.00  0.00     0.052 A 
HETATM   17  C   UNL     1      40.176 -13.326 -15.091  1.00  0.00     0.087 A 
HETATM   18  N   UNL     1      40.378 -14.599 -14.605  1.00  0.00    -0.344 N 
HETATM   19  C   UNL     1      40.654 -15.815 -15.381  1.00  0.00     0.157 C 
HETATM   20  C   UNL     1      40.497 -15.758 -12.427  1.00  0.00     0.032 A 
HETATM   21  C   UNL     1      40.448 -15.621 -11.030  1.00  0.00     0.016 A 
BRANCH  17  22
HETATM   22  C   UNL     1      40.057 -12.883 -16.517  1.00  0.00    -0.002 A 
HETATM   23  C   UNL     1      41.081 -12.198 -17.195  1.00  0.00     0.016 A 
HETATM   24  C   UNL     1      40.937 -11.824 -18.534  1.00  0.00     0.030 A 
HETATM   25  C   UNL     1      39.763 -12.128 -19.256  1.00  0.00     0.029 A 
HETATM   26  C   UNL     1      38.747 -12.835 -18.580  1.00  0.00     0.030 A 
HETATM   27  C   UNL     1      38.896 -13.210 -17.242  1.00  0.00     0.016 A 
BRANCH  25  28
HETATM   28  N   UNL     1      39.613 -11.742 -20.640  1.00  0.00    -0.390 N 
HETATM   29  C   UNL     1      40.713 -11.110 -21.358  1.00  0.00     0.149 C 
HETATM   30  C   UNL     1      38.359 -11.975 -21.344  1.00  0.00     0.149 C 
ENDBRANCH  25  28
ENDBRANCH  17  22
ENDBRANCH   4  12
BRANCH   6  31
HETATM   31  S   UNL     1      41.834 -16.582  -4.887  1.00  0.00     0.131 S 
HETATM   32  O   UNL     1      42.822 -16.310  -3.742  1.00  0.00    -0.598 OA
HETATM   33  O   UNL     1      41.067 -17.792  -4.331  1.00  0.00    -0.598 OA
BRANCH  31  34
HETATM   34  O   UNL     1      42.788 -17.235  -6.159  1.00  0.00    -0.292 OA
HETATM   35  H   UNL     1      42.149 -17.735  -6.729  1.00  0.00     0.232 HD
ENDBRANCH  31  34
ENDBRANCH   6  31
TORSDOF 5
ENDMDL
MODEL 15
REMARK VINA RESULT:      -8.0      4.602     11.645
REMARK  5 active torsions:
REMARK  status: ('A' for Active; 'I' for Inactive)
REMARK    1  A    between atoms: S_3  and  O_4 
REMARK    2  A    between atoms: S_3  and  C_15 
REMARK    3  A    between atoms: N_9  and  C_30 
REMARK    4  A    between atoms: C_11  and  C_13 
REMARK    5  A    between atoms: C_18  and  C_25 
ROOT
HETATM    1  S   UNL     1      40.619 -14.053 -16.762  1.00  0.00    -0.068 SA
HETATM    2  N   UNL     1      41.228 -16.489 -17.019  1.00  0.00    -0.344 N 
HETATM    3  C   UNL     1      40.917 -16.008 -18.268  1.00  0.00     0.053 A 
HETATM    4  C   UNL     1      41.083 -15.521 -16.053  1.00  0.00     0.087 A 
HETATM    5  C   UNL     1      40.555 -14.668 -18.316  1.00  0.00     0.057 A 
HETATM    6  C   UNL     1      40.214 -14.014 -19.510  1.00  0.00     0.097 A 
HETATM    7  C   UNL     1      40.247 -14.770 -20.710  1.00  0.00    -0.037 A 
HETATM    8  C   UNL     1      40.956 -16.751 -19.457  1.00  0.00     0.031 A 
HETATM    9  C   UNL     1      41.715 -17.864 -16.830  1.00  0.00     0.157 C 
HETATM   10  C   UNL     1      40.620 -16.132 -20.666  1.00  0.00     0.011 A 
HETATM   11  C   UNL     1      39.894 -14.154 -22.037  1.00  0.00     0.050 C 
ENDROOT
BRANCH   4  12
HETATM   12  C   UNL     1      41.246 -15.649 -14.571  1.00  0.00    -0.001 A 
HETATM   13  C   UNL     1      40.401 -14.990 -13.648  1.00  0.00     0.035 A 
HETATM   14  C   UNL     1      40.640 -15.143 -12.285  1.00  0.00     0.034 A 
HETATM   15  S   UNL     1      39.785 -14.483 -11.014  1.00  0.00    -0.069 SA
HETATM   16  C   UNL     1      41.677 -15.908 -11.785  1.00  0.00     0.052 A 
HETATM   17  C   UNL     1      40.782 -15.180  -9.828  1.00  0.00     0.087 A 
HETATM   18  N   UNL     1      41.758 -15.954 -10.416  1.00  0.00    -0.344 N 
HETATM   19  C   UNL     1      42.754 -16.796  -9.739  1.00  0.00     0.157 C 
HETATM   20  C   UNL     1      42.535 -16.561 -12.681  1.00  0.00     0.032 A 
HETATM   21  C   UNL     1      42.323 -16.419 -14.062  1.00  0.00     0.016 A 
BRANCH  17  22
HETATM   22  C   UNL     1      40.569 -14.897  -8.373  1.00  0.00    -0.002 A 
HETATM   23  C   UNL     1      40.590 -15.899  -7.386  1.00  0.00     0.016 A 
HETATM   24  C   UNL     1      40.410 -15.587  -6.036  1.00  0.00     0.030 A 
HETATM   25  C   UNL     1      40.211 -14.255  -5.613  1.00  0.00     0.029 A 
HETATM   26  C   UNL     1      40.214 -13.251  -6.602  1.00  0.00     0.030 A 
HETATM   27  C   UNL     1      40.397 -13.566  -7.951  1.00  0.00     0.016 A 
BRANCH  25  28
HETATM   28  N   UNL     1      40.026 -13.932  -4.217  1.00  0.00    -0.390 N 
HETATM   29  C   UNL     1      40.628 -14.757  -3.177  1.00  0.00     0.149 C 
HETATM   30  C   UNL     1      39.231 -12.776  -3.822  1.00  0.00     0.149 C 
ENDBRANCH  25  28
ENDBRANCH  17  22
ENDBRANCH   4  12
BRANCH   6  31
HETATM   31  S   UNL     1      39.749 -12.266 -19.498  1.00  0.00     0.131 S 
HETATM   32  O   UNL     1      38.559 -11.978 -18.568  1.00  0.00    -0.598 OA
HETATM   33  O   UNL     1      40.841 -11.400 -18.853  1.00  0.00    -0.598 OA
BRANCH  31  34
HETATM   34  O   UNL     1      39.379 -11.455 -20.967  1.00  0.00    -0.292 OA
HETATM   35  H   UNL     1      39.648 -10.513 -20.815  1.00  0.00     0.232 HD
ENDBRANCH  31  34
ENDBRANCH   6  31
TORSDOF 5
ENDMDL
MODEL 16
REMARK VINA RESULT:      -8.0      1.879      2.337
REMARK  5 active torsions:
REMARK  status: ('A' for Active; 'I' for Inactive)
REMARK    1  A    between atoms: S_3  and  O_4 
REMARK    2  A    between atoms: S_3  and  C_15 
REMARK    3  A    between atoms: N_9  and  C_30 
REMARK    4  A    between atoms: C_11  and  C_13 
REMARK    5  A    between atoms: C_18  and  C_25 
ROOT
HETATM    1  S   UNL     1      37.479 -12.054  -9.622  1.00  0.00    -0.068 SA
HETATM    2  N   UNL     1      39.458 -13.606  -9.405  1.00  0.00    -0.344 N 
HETATM    3  C   UNL     1      38.890 -13.485  -8.159  1.00  0.00     0.053 A 
HETATM    4  C   UNL     1      38.800 -12.839 -10.337  1.00  0.00     0.087 A 
HETATM    5  C   UNL     1      37.775 -12.659  -8.091  1.00  0.00     0.057 A 
HETATM    6  C   UNL     1      37.069 -12.430  -6.901  1.00  0.00     0.097 A 
HETATM    7  C   UNL     1      37.527 -13.080  -5.726  1.00  0.00    -0.037 A 
HETATM    8  C   UNL     1      39.336 -14.132  -6.997  1.00  0.00     0.031 A 
HETATM    9  C   UNL     1      40.587 -14.516  -9.643  1.00  0.00     0.157 C 
HETATM   10  C   UNL     1      38.657 -13.925  -5.791  1.00  0.00     0.011 A 
HETATM   11  C   UNL     1      36.834 -12.892  -4.402  1.00  0.00     0.050 C 
ENDROOT
BRANCH   4  12
HETATM   12  C   UNL     1      39.139 -12.628 -11.780  1.00  0.00    -0.001 A 
HETATM   13  C   UNL     1      38.378 -13.183 -12.835  1.00  0.00     0.035 A 
HETATM   14  C   UNL     1      38.779 -12.959 -14.148  1.00  0.00     0.034 A 
HETATM   15  S   UNL     1      38.048 -13.494 -15.549  1.00  0.00    -0.069 SA
HETATM   16  C   UNL     1      39.901 -12.222 -14.475  1.00  0.00     0.052 A 
HETATM   17  C   UNL     1      39.207 -12.779 -16.565  1.00  0.00     0.087 A 
HETATM   18  N   UNL     1      40.143 -12.096 -15.821  1.00  0.00    -0.344 N 
HETATM   19  C   UNL     1      41.248 -11.268 -16.323  1.00  0.00     0.157 C 
HETATM   20  C   UNL     1      40.679 -11.672 -13.447  1.00  0.00     0.032 A 
HETATM   21  C   UNL     1      40.302 -11.887 -12.111  1.00  0.00     0.016 A 
BRANCH  17  22
HETATM   22  C   UNL     1      39.151 -12.960 -18.051  1.00  0.00    -0.002 A 
HETATM   23  C   UNL     1      38.358 -12.159 -18.892  1.00  0.00     0.016 A 
HETATM   24  C   UNL     1      38.355 -12.347 -20.276  1.00  0.00     0.030 A 
HETATM   25  C   UNL     1      39.154 -13.340 -20.882  1.00  0.00     0.029 A 
HETATM   26  C   UNL     1      39.966 -14.126 -20.038  1.00  0.00     0.030 A 
HETATM   27  C   UNL     1      39.969 -13.933 -18.654  1.00  0.00     0.016 A 
BRANCH  25  28
HETATM   28  N   UNL     1      39.152 -13.535 -22.313  1.00  0.00    -0.390 N 
HETATM   29  C   UNL     1      38.099 -12.957 -23.140  1.00  0.00     0.149 C 
HETATM   30  C   UNL     1      40.200 -14.315 -22.959  1.00  0.00     0.149 C 
ENDBRANCH  25  28
ENDBRANCH  17  22
ENDBRANCH   4  12
BRANCH   6  31
HETATM   31  S   UNL     1      35.626 -11.339  -6.885  1.00  0.00     0.131 S 
HETATM   32  O   UNL     1      35.578 -10.406  -8.106  1.00  0.00    -0.598 OA
HETATM   33  O   UNL     1      34.323 -12.131  -7.070  1.00  0.00    -0.598 OA
BRANCH  31  34
HETATM   34  O   UNL     1      35.317 -10.326  -5.532  1.00  0.00    -0.292 OA
HETATM   35  H   UNL     1      34.890 -10.917  -4.860  1.00  0.00     0.232 HD
ENDBRANCH  31  34
ENDBRANCH   6  31
TORSDOF 5
ENDMDL
MODEL 17
REMARK VINA RESULT:      -8.0      3.365      4.216
REMARK  5 active torsions:
REMARK  status: ('A' for Active; 'I' for Inactive)
REMARK    1  A    between atoms: S_3  and  O_4 
REMARK    2  A    between atoms: S_3  and  C_15 
REMARK    3  A    between atoms: N_9  and  C_30 
REMARK    4  A    between atoms: C_11  and  C_13 
REMARK    5  A    between atoms: C_18  and  C_25 
ROOT
HETATM    1  S   UNL     1      39.832 -12.727 -10.455  1.00  0.00    -0.068 SA
HETATM    2  N   UNL     1      37.447 -12.943 -11.251  1.00  0.00    -0.344 N 
HETATM    3  C   UNL     1      37.412 -12.750  -9.891  1.00  0.00     0.053 A 
HETATM    4  C   UNL     1      38.738 -12.985 -11.723  1.00  0.00     0.087 A 
HETATM    5  C   UNL     1      38.650 -12.608  -9.278  1.00  0.00     0.057 A 
HETATM    6  C   UNL     1      38.797 -12.396  -7.899  1.00  0.00     0.097 A 
HETATM    7  C   UNL     1      37.618 -12.325  -7.113  1.00  0.00    -0.037 A 
HETATM    8  C   UNL     1      36.248 -12.672  -9.112  1.00  0.00     0.031 A 
HETATM    9  C   UNL     1      36.211 -13.020 -12.043  1.00  0.00     0.157 C 
HETATM   10  C   UNL     1      36.356 -12.464  -7.733  1.00  0.00     0.011 A 
HETATM   11  C   UNL     1      37.678 -12.103  -5.625  1.00  0.00     0.050 C 
ENDROOT
BRANCH   4  12
HETATM   12  C   UNL     1      39.214 -13.250 -13.117  1.00  0.00    -0.001 A 
HETATM   13  C   UNL     1      39.805 -14.476 -13.504  1.00  0.00     0.035 A 
HETATM   14  C   UNL     1      40.244 -14.630 -14.815  1.00  0.00     0.034 A 
HETATM   15  S   UNL     1      40.956 -15.970 -15.508  1.00  0.00    -0.069 SA
HETATM   16  C   UNL     1      40.140 -13.631 -15.765  1.00  0.00     0.052 A 
HETATM   17  C   UNL     1      41.139 -15.233 -17.028  1.00  0.00     0.087 A 
HETATM   18  N   UNL     1      40.618 -13.959 -17.009  1.00  0.00    -0.344 N 
HETATM   19  C   UNL     1      40.494 -13.030 -18.142  1.00  0.00     0.157 C 
HETATM   20  C   UNL     1      39.569 -12.403 -15.402  1.00  0.00     0.032 A 
HETATM   21  C   UNL     1      39.123 -12.216 -14.083  1.00  0.00     0.016 A 
BRANCH  17  22
HETATM   22  C   UNL     1      41.824 -15.942 -18.155  1.00  0.00    -0.002 A 
HETATM   23  C   UNL     1      41.221 -16.149 -19.409  1.00  0.00     0.016 A 
HETATM   24  C   UNL     1      41.906 -16.795 -20.442  1.00  0.00     0.030 A 
HETATM   25  C   UNL     1      43.229 -17.255 -20.267  1.00  0.00     0.029 A 
HETATM   26  C   UNL     1      43.838 -17.025 -19.016  1.00  0.00     0.030 A 
HETATM   27  C   UNL     1      43.152 -16.376 -17.987  1.00  0.00     0.016 A 
BRANCH  25  28
HETATM   28  N   UNL     1      43.938 -17.922 -21.334  1.00  0.00    -0.390 N 
HETATM   29  C   UNL     1      43.738 -19.345 -21.582  1.00  0.00     0.149 C 
HETATM   30  C   UNL     1      44.867 -17.188 -22.182  1.00  0.00     0.149 C 
ENDBRANCH  25  28
ENDBRANCH  17  22
ENDBRANCH   4  12
BRANCH   6  31
HETATM   31  S   UNL     1      40.442 -12.222  -7.168  1.00  0.00     0.131 S 
HETATM   32  O   UNL     1      41.251 -13.528  -7.217  1.00  0.00    -0.598 OA
HETATM   33  O   UNL     1      41.333 -11.294  -8.006  1.00  0.00    -0.598 OA
BRANCH  31  34
HETATM   34  O   UNL     1      40.622 -11.641  -5.560  1.00  0.00    -0.292 OA
HETATM   35  H   UNL     1      41.054 -10.754  -5.654  1.00  0.00     0.232 HD
ENDBRANCH  31  34
ENDBRANCH   6  31
TORSDOF 5
ENDMDL
MODEL 18
REMARK VINA RESULT:      -8.0      2.581      2.935
REMARK  5 active torsions:
REMARK  status: ('A' for Active; 'I' for Inactive)
REMARK    1  A    between atoms: S_3  and  O_4 
REMARK    2  A    between atoms: S_3  and  C_15 
REMARK    3  A    between atoms: N_9  and  C_30 
REMARK    4  A    between atoms: C_11  and  C_13 
REMARK    5  A    between atoms: C_18  and  C_25 
ROOT
HETATM    1  S   UNL     1      41.017 -15.360 -10.003  1.00  0.00    -0.068 SA
HETATM    2  N   UNL     1      39.609 -13.373  -9.339  1.00  0.00    -0.344 N 
HETATM    3  C   UNL     1      39.791 -14.143  -8.216  1.00  0.00     0.053 A 
HETATM    4  C   UNL     1      40.212 -13.934 -10.440  1.00  0.00     0.087 A 
HETATM    5  C   UNL     1      40.553 -15.290  -8.398  1.00  0.00     0.057 A 
HETATM    6  C   UNL     1      40.844 -16.184  -7.357  1.00  0.00     0.097 A 
HETATM    7  C   UNL     1      40.330 -15.887  -6.068  1.00  0.00    -0.037 A 
HETATM    8  C   UNL     1      39.291 -13.848  -6.939  1.00  0.00     0.031 A 
HETATM    9  C   UNL     1      38.900 -12.087  -9.275  1.00  0.00     0.157 C 
HETATM   10  C   UNL     1      39.559 -14.719  -5.877  1.00  0.00     0.011 A 
HETATM   11  C   UNL     1      40.588 -16.790  -4.891  1.00  0.00     0.050 C 
ENDROOT
BRANCH   4  12
HETATM   12  C   UNL     1      40.189 -13.460 -11.861  1.00  0.00    -0.001 A 
HETATM   13  C   UNL     1      39.493 -14.144 -12.885  1.00  0.00     0.035 A 
HETATM   14  C   UNL     1      39.546 -13.649 -14.184  1.00  0.00     0.034 A 
HETATM   15  S   UNL     1      38.809 -14.266 -15.547  1.00  0.00    -0.069 SA
HETATM   16  C   UNL     1      40.258 -12.516 -14.528  1.00  0.00     0.052 A 
HETATM   17  C   UNL     1      39.438 -13.067 -16.573  1.00  0.00     0.087 A 
HETATM   18  N   UNL     1      40.192 -12.167 -15.854  1.00  0.00    -0.344 N 
HETATM   19  C   UNL     1      40.826 -10.938 -16.351  1.00  0.00     0.157 C 
HETATM   20  C   UNL     1      40.965 -11.827 -13.532  1.00  0.00     0.032 A 
HETATM   21  C   UNL     1      40.936 -12.308 -12.213  1.00  0.00     0.016 A 
BRANCH  17  22
HETATM   22  C   UNL     1      39.182 -13.096 -18.048  1.00  0.00    -0.002 A 
HETATM   23  C   UNL     1      38.153 -12.360 -18.663  1.00  0.00     0.016 A 
HETATM   24  C   UNL     1      37.965 -12.399 -20.047  1.00  0.00     0.030 A 
HETATM   25  C   UNL     1      38.805 -13.170 -20.879  1.00  0.00     0.029 A 
HETATM   26  C   UNL     1      39.849 -13.890 -20.261  1.00  0.00     0.030 A 
HETATM   27  C   UNL     1      40.036 -13.846 -18.878  1.00  0.00     0.016 A 
BRANCH  25  28
HETATM   28  N   UNL     1      38.610 -13.210 -22.309  1.00  0.00    -0.390 N 
HETATM   29  C   UNL     1      37.326 -12.848 -22.895  1.00  0.00     0.149 C 
HETATM   30  C   UNL     1      39.694 -13.616 -23.195  1.00  0.00     0.149 C 
ENDBRANCH  25  28
ENDBRANCH  17  22
ENDBRANCH   4  12
BRANCH   6  31
HETATM   31  S   UNL     1      41.840 -17.661  -7.667  1.00  0.00     0.131 S 
HETATM   32  O   UNL     1      41.330 -18.477  -8.866  1.00  0.00    -0.598 OA
HETATM   33  O   UNL     1      43.254 -17.294  -8.143  1.00  0.00    -0.598 OA
BRANCH  31  34
HETATM   34  O   UNL     1      42.101 -18.813  -6.418  1.00  0.00    -0.292 OA
HETATM   35  H   UNL     1      41.269 -19.351  -6.387  1.00  0.00     0.232 HD
ENDBRANCH  31  34
ENDBRANCH   6  31
TORSDOF 5
ENDMDL
MODEL 19
REMARK VINA RESULT:      -7.9      4.897     11.866
REMARK  5 active torsions:
REMARK  status: ('A' for Active; 'I' for Inactive)
REMARK    1  A    between atoms: S_3  and  O_4 
REMARK    2  A    between atoms: S_3  and  C_15 
REMARK    3  A    between atoms: N_9  and  C_30 
REMARK    4  A    between atoms: C_11  and  C_13 
REMARK    5  A    between atoms: C_18  and  C_25 
ROOT
HETATM    1  S   UNL     1      40.764 -15.369 -16.512  1.00  0.00    -0.068 SA
HETATM    2  N   UNL     1      39.417 -13.259 -16.189  1.00  0.00    -0.344 N 
HETATM    3  C   UNL     1      39.591 -13.434 -17.541  1.00  0.00     0.053 A 
HETATM    4  C   UNL     1      40.042 -14.248 -15.466  1.00  0.00     0.087 A 
HETATM    5  C   UNL     1      40.318 -14.560 -17.906  1.00  0.00     0.057 A 
HETATM    6  C   UNL     1      40.583 -14.895 -19.242  1.00  0.00     0.097 A 
HETATM    7  C   UNL     1      40.077 -14.035 -20.251  1.00  0.00    -0.037 A 
HETATM    8  C   UNL     1      39.086 -12.590 -18.541  1.00  0.00     0.031 A 
HETATM    9  C   UNL     1      38.594 -12.161 -15.663  1.00  0.00     0.157 C 
HETATM   10  C   UNL     1      39.333 -12.892 -19.885  1.00  0.00     0.011 A 
HETATM   11  C   UNL     1      40.313 -14.313 -21.712  1.00  0.00     0.050 C 
ENDROOT
BRANCH   4  12
HETATM   12  C   UNL     1      40.160 -14.385 -13.980  1.00  0.00    -0.001 A 
HETATM   13  C   UNL     1      39.733 -13.379 -13.082  1.00  0.00     0.035 A 
HETATM   14  C   UNL     1      39.904 -13.577 -11.715  1.00  0.00     0.034 A 
HETATM   15  S   UNL     1      39.476 -12.553 -10.470  1.00  0.00    -0.069 SA
HETATM   16  C   UNL     1      40.484 -14.714 -11.188  1.00  0.00     0.052 A 
HETATM   17  C   UNL     1      40.067 -13.589  -9.260  1.00  0.00     0.087 A 
HETATM   18  N   UNL     1      40.565 -14.745  -9.818  1.00  0.00    -0.344 N 
HETATM   19  C   UNL     1      41.078 -15.927  -9.111  1.00  0.00     0.157 C 
HETATM   20  C   UNL     1      40.926 -15.720 -12.059  1.00  0.00     0.032 A 
HETATM   21  C   UNL     1      40.773 -15.545 -13.444  1.00  0.00     0.016 A 
BRANCH  17  22
HETATM   22  C   UNL     1      40.040 -13.189  -7.816  1.00  0.00    -0.002 A 
HETATM   23  C   UNL     1      40.673 -12.032  -7.329  1.00  0.00     0.016 A 
HETATM   24  C   UNL     1      40.601 -11.684  -5.977  1.00  0.00     0.030 A 
HETATM   25  C   UNL     1      39.885 -12.476  -5.055  1.00  0.00     0.029 A 
HETATM   26  C   UNL     1      39.233 -13.624  -5.551  1.00  0.00     0.030 A 
HETATM   27  C   UNL     1      39.303 -13.967  -6.904  1.00  0.00     0.016 A 
BRANCH  25  28
HETATM   28  N   UNL     1      39.811 -12.117  -3.658  1.00  0.00    -0.390 N 
HETATM   29  C   UNL     1      38.536 -12.142  -2.951  1.00  0.00     0.149 C 
HETATM   30  C   UNL     1      41.008 -11.722  -2.928  1.00  0.00     0.149 C 
ENDBRANCH  25  28
ENDBRANCH  17  22
ENDBRANCH   4  12
BRANCH   6  31
HETATM   31  S   UNL     1      41.539 -16.377 -19.645  1.00  0.00     0.131 S 
HETATM   32  O   UNL     1      42.847 -16.471 -18.843  1.00  0.00    -0.598 OA
HETATM   33  O   UNL     1      40.819 -17.652 -19.182  1.00  0.00    -0.598 OA
BRANCH  31  34
HETATM   34  O   UNL     1      41.983 -16.709 -21.272  1.00  0.00    -0.292 OA
HETATM   35  H   UNL     1      42.188 -15.825 -21.669  1.00  0.00     0.232 HD
ENDBRANCH  31  34
ENDBRANCH   6  31
TORSDOF 5
ENDMDL
MODEL 20
REMARK VINA RESULT:      -7.8     54.282     56.550
REMARK  5 active torsions:
REMARK  status: ('A' for Active; 'I' for Inactive)
REMARK    1  A    between atoms: S_3  and  O_4 
REMARK    2  A    between atoms: S_3  and  C_15 
REMARK    3  A    between atoms: N_9  and  C_30 
REMARK    4  A    between atoms: C_11  and  C_13 
REMARK    5  A    between atoms: C_18  and  C_25 
ROOT
HETATM    1  S   UNL     1      -6.518  15.682 -17.615  1.00  0.00    -0.068 SA
HETATM    2  N   UNL     1      -7.476  17.908 -16.910  1.00  0.00    -0.344 N 
HETATM    3  C   UNL     1      -7.289  17.952 -18.271  1.00  0.00     0.053 A 
HETATM    4  C   UNL     1      -7.063  16.707 -16.381  1.00  0.00     0.087 A 
HETATM    5  C   UNL     1      -6.763  16.797 -18.837  1.00  0.00     0.057 A 
HETATM    6  C   UNL     1      -6.517  16.667 -20.211  1.00  0.00     0.097 A 
HETATM    7  C   UNL     1      -6.825  17.773 -21.045  1.00  0.00    -0.037 A 
HETATM    8  C   UNL     1      -7.600  19.041 -19.098  1.00  0.00     0.031 A 
HETATM    9  C   UNL     1      -8.107  19.024 -16.191  1.00  0.00     0.157 C 
HETATM   10  C   UNL     1      -7.365  18.948 -20.475  1.00  0.00     0.011 A 
HETATM   11  C   UNL     1      -6.592  17.726 -22.532  1.00  0.00     0.050 C 
ENDROOT
BRANCH   4  12
HETATM   12  C   UNL     1      -7.023  16.284 -14.946  1.00  0.00    -0.001 A 
HETATM   13  C   UNL     1      -7.215  17.188 -13.875  1.00  0.00     0.035 A 
HETATM   14  C   UNL     1      -7.136  16.715 -12.569  1.00  0.00     0.034 A 
HETATM   15  S   UNL     1      -7.333  17.574 -11.153  1.00  0.00    -0.069 SA
HETATM   16  C   UNL     1      -6.866  15.394 -12.263  1.00  0.00     0.052 A 
HETATM   17  C   UNL     1      -7.048  16.228 -10.158  1.00  0.00     0.087 A 
HETATM   18  N   UNL     1      -6.833  15.103 -10.922  1.00  0.00    -0.344 N 
HETATM   19  C   UNL     1      -6.645  13.725 -10.447  1.00  0.00     0.157 C 
HETATM   20  C   UNL     1      -6.661  14.482 -13.307  1.00  0.00     0.032 A 
HETATM   21  C   UNL     1      -6.728  14.932 -14.636  1.00  0.00     0.016 A 
BRANCH  17  22
HETATM   22  C   UNL     1      -7.016  16.359  -8.666  1.00  0.00    -0.002 A 
HETATM   23  C   UNL     1      -8.178  16.459  -7.880  1.00  0.00     0.016 A 
HETATM   24  C   UNL     1      -8.102  16.556  -6.488  1.00  0.00     0.030 A 
HETATM   25  C   UNL     1      -6.859  16.548  -5.820  1.00  0.00     0.029 A 
HETATM   26  C   UNL     1      -5.697  16.425  -6.610  1.00  0.00     0.030 A 
HETATM   27  C   UNL     1      -5.776  16.324  -8.001  1.00  0.00     0.016 A 
BRANCH  25  28
HETATM   28  N   UNL     1      -6.780  16.648  -4.382  1.00  0.00    -0.390 N 
HETATM   29  C   UNL     1      -5.536  16.351  -3.683  1.00  0.00     0.149 C 
HETATM   30  C   UNL     1      -7.944  17.047  -3.600  1.00  0.00     0.149 C 
ENDBRANCH  25  28
ENDBRANCH  17  22
ENDBRANCH   4  12
BRANCH   6  31
HETATM   31  S   UNL     1      -5.828  15.134 -20.879  1.00  0.00     0.131 S 
HETATM   32  O   UNL     1      -5.535  15.225 -22.386  1.00  0.00    -0.598 OA
HETATM   33  O   UNL     1      -4.422  14.862 -20.323  1.00  0.00    -0.598 OA
BRANCH  31  34
HETATM   34  O   UNL     1      -6.659  13.644 -20.672  1.00  0.00    -0.292 OA
HETATM   35  H   UNL     1      -7.486  13.733 -21.212  1.00  0.00     0.232 HD
ENDBRANCH  31  34
ENDBRANCH   6  31
TORSDOF 5
ENDMDL
