MODEL 1
REMARK VINA RESULT:      -9.9      0.000      0.000
REMARK  2 active torsions:
REMARK  status: ('A' for Active; 'I' for Inactive)
REMARK    1  A    between atoms: N_3  and  C_15 
REMARK    2  A    between atoms: C_5  and  C_7 
ROOT
HETATM    1  S   UNL     1      53.584  -5.478 -15.598  1.00  0.00    -0.069 SA
HETATM    2  N   UNL     1      54.292  -7.911 -15.613  1.00  0.00    -0.344 N 
HETATM    3  C   UNL     1      54.131  -7.536 -14.303  1.00  0.00     0.052 A 
HETATM    4  C   UNL     1      53.997  -6.877 -16.472  1.00  0.00     0.087 A 
HETATM    5  C   UNL     1      53.740  -6.220 -14.113  1.00  0.00     0.034 A 
HETATM    6  C   UNL     1      54.341  -8.356 -13.180  1.00  0.00     0.031 A 
HETATM    7  C   UNL     1      53.538  -5.668 -12.852  1.00  0.00     0.028 A 
HETATM    8  C   UNL     1      54.790  -9.248 -15.966  1.00  0.00     0.157 C 
HETATM    9  C   UNL     1      53.740  -6.484 -11.723  1.00  0.00    -0.061 A 
HETATM   10  C   UNL     1      54.142  -7.826 -11.896  1.00  0.00     0.009 A 
HETATM   11  C   UNL     1      53.536  -5.942 -10.340  1.00  0.00     0.048 C 
ENDROOT
BRANCH   4  12
HETATM   12  C   UNL     1      53.976  -6.888 -17.970  1.00  0.00    -0.002 A 
HETATM   13  C   UNL     1      54.155  -8.059 -18.729  1.00  0.00     0.016 A 
HETATM   14  C   UNL     1      54.106  -8.028 -20.126  1.00  0.00     0.030 A 
HETATM   15  C   UNL     1      53.865  -6.826 -20.824  1.00  0.00     0.029 A 
HETATM   16  C   UNL     1      53.663  -5.658 -20.058  1.00  0.00     0.030 A 
HETATM   17  C   UNL     1      53.709  -5.693 -18.662  1.00  0.00     0.016 A 
BRANCH  15  18
HETATM   18  N   UNL     1      53.815  -6.793 -22.266  1.00  0.00    -0.390 N 
HETATM   19  C   UNL     1      54.280  -7.929 -23.051  1.00  0.00     0.149 C 
HETATM   20  C   UNL     1      53.300  -5.623 -22.965  1.00  0.00     0.149 C 
ENDBRANCH  15  18
ENDBRANCH   4  12
TORSDOF 2
ENDMDL
MODEL 2
REMARK VINA RESULT:      -9.7      2.443      4.617
REMARK  2 active torsions:
REMARK  status: ('A' for Active; 'I' for Inactive)
REMARK    1  A    between atoms: N_3  and  C_15 
REMARK    2  A    between atoms: C_5  and  C_7 
ROOT
HETATM    1  S   UNL     1      53.568  -5.406 -10.993  1.00  0.00    -0.069 SA
HETATM    2  N   UNL     1      54.299  -7.832 -10.989  1.00  0.00    -0.344 N 
HETATM    3  C   UNL     1      54.136  -7.448  -9.682  1.00  0.00     0.052 A 
HETATM    4  C   UNL     1      53.992  -6.807 -11.856  1.00  0.00     0.087 A 
HETATM    5  C   UNL     1      53.734  -6.134  -9.503  1.00  0.00     0.034 A 
HETATM    6  C   UNL     1      54.355  -8.257  -8.553  1.00  0.00     0.031 A 
HETATM    7  C   UNL     1      53.529  -5.573  -8.245  1.00  0.00     0.028 A 
HETATM    8  C   UNL     1      54.808  -9.167 -11.333  1.00  0.00     0.157 C 
HETATM    9  C   UNL     1      53.740  -6.378  -7.110  1.00  0.00    -0.061 A 
HETATM   10  C   UNL     1      54.154  -7.718  -7.273  1.00  0.00     0.009 A 
HETATM   11  C   UNL     1      53.534  -5.827  -5.732  1.00  0.00     0.048 C 
ENDROOT
BRANCH   4  12
HETATM   12  C   UNL     1      53.968  -6.831 -13.354  1.00  0.00    -0.002 A 
HETATM   13  C   UNL     1      54.108  -8.013 -14.103  1.00  0.00     0.016 A 
HETATM   14  C   UNL     1      54.058  -7.993 -15.500  1.00  0.00     0.030 A 
HETATM   15  C   UNL     1      53.856  -6.790 -16.208  1.00  0.00     0.029 A 
HETATM   16  C   UNL     1      53.693  -5.609 -15.452  1.00  0.00     0.030 A 
HETATM   17  C   UNL     1      53.740  -5.634 -14.056  1.00  0.00     0.016 A 
BRANCH  15  18
HETATM   18  N   UNL     1      53.805  -6.768 -17.651  1.00  0.00    -0.390 N 
HETATM   19  C   UNL     1      54.196  -7.938 -18.425  1.00  0.00     0.149 C 
HETATM   20  C   UNL     1      53.362  -5.575 -18.360  1.00  0.00     0.149 C 
ENDBRANCH  15  18
ENDBRANCH   4  12
TORSDOF 2
ENDMDL
MODEL 3
REMARK VINA RESULT:      -9.5      1.688      7.860
REMARK  2 active torsions:
REMARK  status: ('A' for Active; 'I' for Inactive)
REMARK    1  A    between atoms: N_3  and  C_15 
REMARK    2  A    between atoms: C_5  and  C_7 
ROOT
HETATM    1  S   UNL     1      53.431  -5.446 -16.142  1.00  0.00    -0.069 SA
HETATM    2  N   UNL     1      54.101  -7.889 -16.178  1.00  0.00    -0.344 N 
HETATM    3  C   UNL     1      54.040  -7.459 -17.479  1.00  0.00     0.052 A 
HETATM    4  C   UNL     1      53.814  -6.870 -15.298  1.00  0.00     0.087 A 
HETATM    5  C   UNL     1      53.683  -6.130 -17.641  1.00  0.00     0.034 A 
HETATM    6  C   UNL     1      54.288  -8.245 -18.618  1.00  0.00     0.031 A 
HETATM    7  C   UNL     1      53.564  -5.528 -18.891  1.00  0.00     0.028 A 
HETATM    8  C   UNL     1      54.378  -9.295 -15.853  1.00  0.00     0.157 C 
HETATM    9  C   UNL     1      53.817  -6.306 -20.036  1.00  0.00    -0.061 A 
HETATM   10  C   UNL     1      54.177  -7.663 -19.892  1.00  0.00     0.009 A 
HETATM   11  C   UNL     1      53.704  -5.710 -21.407  1.00  0.00     0.048 C 
ENDROOT
BRANCH   4  12
HETATM   12  C   UNL     1      53.841  -6.900 -13.800  1.00  0.00    -0.002 A 
HETATM   13  C   UNL     1      54.187  -8.046 -13.063  1.00  0.00     0.016 A 
HETATM   14  C   UNL     1      54.221  -8.023 -11.665  1.00  0.00     0.030 A 
HETATM   15  C   UNL     1      53.919  -6.848 -10.945  1.00  0.00     0.029 A 
HETATM   16  C   UNL     1      53.594  -5.694 -11.689  1.00  0.00     0.030 A 
HETATM   17  C   UNL     1      53.566  -5.720 -13.086  1.00  0.00     0.016 A 
BRANCH  15  18
HETATM   18  N   UNL     1      53.953  -6.823  -9.501  1.00  0.00    -0.390 N 
HETATM   19  C   UNL     1      54.392  -7.991  -8.749  1.00  0.00     0.149 C 
HETATM   20  C   UNL     1      53.548  -5.630  -8.770  1.00  0.00     0.149 C 
ENDBRANCH  15  18
ENDBRANCH   4  12
TORSDOF 2
ENDMDL
MODEL 4
REMARK VINA RESULT:      -9.3      1.682      7.933
REMARK  2 active torsions:
REMARK  status: ('A' for Active; 'I' for Inactive)
REMARK    1  A    between atoms: N_3  and  C_15 
REMARK    2  A    between atoms: C_5  and  C_7 
ROOT
HETATM    1  S   UNL     1      54.370  -8.381 -17.430  1.00  0.00    -0.069 SA
HETATM    2  N   UNL     1      53.782  -5.918 -17.521  1.00  0.00    -0.344 N 
HETATM    3  C   UNL     1      53.847  -6.374 -18.813  1.00  0.00     0.052 A 
HETATM    4  C   UNL     1      54.023  -6.929 -16.618  1.00  0.00     0.087 A 
HETATM    5  C   UNL     1      54.162  -7.717 -18.945  1.00  0.00     0.034 A 
HETATM    6  C   UNL     1      53.642  -5.602 -19.970  1.00  0.00     0.031 A 
HETATM    7  C   UNL     1      54.279  -8.346 -20.182  1.00  0.00     0.028 A 
HETATM    8  C   UNL     1      53.548  -4.497 -17.225  1.00  0.00     0.157 C 
HETATM    9  C   UNL     1      54.069  -7.581 -21.344  1.00  0.00    -0.061 A 
HETATM   10  C   UNL     1      53.752  -6.211 -21.230  1.00  0.00     0.009 A 
HETATM   11  C   UNL     1      54.181  -8.206 -22.702  1.00  0.00     0.048 C 
ENDROOT
BRANCH   4  12
HETATM   12  C   UNL     1      53.975  -6.871 -15.121  1.00  0.00    -0.002 A 
HETATM   13  C   UNL     1      53.602  -5.716 -14.411  1.00  0.00     0.016 A 
HETATM   14  C   UNL     1      53.549  -5.713 -13.014  1.00  0.00     0.030 A 
HETATM   15  C   UNL     1      53.859  -6.868 -12.267  1.00  0.00     0.029 A 
HETATM   16  C   UNL     1      54.212  -8.031 -12.984  1.00  0.00     0.030 A 
HETATM   17  C   UNL     1      54.259  -8.032 -14.380  1.00  0.00     0.016 A 
BRANCH  15  18
HETATM   18  N   UNL     1      53.806  -6.866 -10.824  1.00  0.00    -0.390 N 
HETATM   19  C   UNL     1      53.946  -8.107 -10.074  1.00  0.00     0.149 C 
HETATM   20  C   UNL     1      53.611  -5.622 -10.091  1.00  0.00     0.149 C 
ENDBRANCH  15  18
ENDBRANCH   4  12
TORSDOF 2
ENDMDL
MODEL 5
REMARK VINA RESULT:      -9.2      2.082      3.780
REMARK  2 active torsions:
REMARK  status: ('A' for Active; 'I' for Inactive)
REMARK    1  A    between atoms: N_3  and  C_15 
REMARK    2  A    between atoms: C_5  and  C_7 
ROOT
HETATM    1  S   UNL     1      54.333  -8.584 -12.382  1.00  0.00    -0.069 SA
HETATM    2  N   UNL     1      53.687  -6.134 -12.392  1.00  0.00    -0.344 N 
HETATM    3  C   UNL     1      53.831  -6.517 -11.082  1.00  0.00     0.052 A 
HETATM    4  C   UNL     1      53.962  -7.173 -13.253  1.00  0.00     0.087 A 
HETATM    5  C   UNL     1      54.187  -7.843 -10.895  1.00  0.00     0.034 A 
HETATM    6  C   UNL     1      53.635  -5.696  -9.958  1.00  0.00     0.031 A 
HETATM    7  C   UNL     1      54.367  -8.405  -9.634  1.00  0.00     0.028 A 
HETATM    8  C   UNL     1      53.226  -4.784 -12.744  1.00  0.00     0.157 C 
HETATM    9  C   UNL     1      54.178  -7.588  -8.504  1.00  0.00    -0.061 A 
HETATM   10  C   UNL     1      53.812  -6.236  -8.674  1.00  0.00     0.009 A 
HETATM   11  C   UNL     1      54.359  -8.139  -7.122  1.00  0.00     0.048 C 
ENDROOT
BRANCH   4  12
HETATM   12  C   UNL     1      53.993  -7.156 -14.751  1.00  0.00    -0.002 A 
HETATM   13  C   UNL     1      54.284  -8.295 -15.523  1.00  0.00     0.016 A 
HETATM   14  C   UNL     1      54.280  -8.241 -16.920  1.00  0.00     0.030 A 
HETATM   15  C   UNL     1      53.975  -7.046 -17.605  1.00  0.00     0.029 A 
HETATM   16  C   UNL     1      53.662  -5.911 -16.827  1.00  0.00     0.030 A 
HETATM   17  C   UNL     1      53.662  -5.971 -15.431  1.00  0.00     0.016 A 
BRANCH  15  18
HETATM   18  N   UNL     1      53.972  -6.988 -19.048  1.00  0.00    -0.390 N 
HETATM   19  C   UNL     1      53.720  -5.731 -19.739  1.00  0.00     0.149 C 
HETATM   20  C   UNL     1      54.219  -8.186 -19.839  1.00  0.00     0.149 C 
ENDBRANCH  15  18
ENDBRANCH   4  12
TORSDOF 2
ENDMDL
MODEL 6
REMARK VINA RESULT:      -9.0      1.795      8.181
REMARK  2 active torsions:
REMARK  status: ('A' for Active; 'I' for Inactive)
REMARK    1  A    between atoms: N_3  and  C_15 
REMARK    2  A    between atoms: C_5  and  C_7 
ROOT
HETATM    1  S   UNL     1      53.438  -5.432 -21.008  1.00  0.00    -0.069 SA
HETATM    2  N   UNL     1      54.104  -7.877 -21.033  1.00  0.00    -0.344 N 
HETATM    3  C   UNL     1      54.044  -7.452 -22.337  1.00  0.00     0.052 A 
HETATM    4  C   UNL     1      53.818  -6.854 -20.157  1.00  0.00     0.087 A 
HETATM    5  C   UNL     1      53.690  -6.123 -22.504  1.00  0.00     0.034 A 
HETATM    6  C   UNL     1      54.292  -8.243 -23.472  1.00  0.00     0.031 A 
HETATM    7  C   UNL     1      53.573  -5.526 -23.756  1.00  0.00     0.028 A 
HETATM    8  C   UNL     1      54.378  -9.282 -20.702  1.00  0.00     0.157 C 
HETATM    9  C   UNL     1      53.825  -6.309 -24.898  1.00  0.00    -0.061 A 
HETATM   10  C   UNL     1      54.183  -7.666 -24.748  1.00  0.00     0.009 A 
HETATM   11  C   UNL     1      53.715  -5.719 -26.271  1.00  0.00     0.048 C 
ENDROOT
BRANCH   4  12
HETATM   12  C   UNL     1      53.844  -6.877 -18.660  1.00  0.00    -0.002 A 
HETATM   13  C   UNL     1      54.204  -8.016 -17.917  1.00  0.00     0.016 A 
HETATM   14  C   UNL     1      54.236  -7.987 -16.520  1.00  0.00     0.030 A 
HETATM   15  C   UNL     1      53.919  -6.813 -15.805  1.00  0.00     0.029 A 
HETATM   16  C   UNL     1      53.580  -5.666 -16.554  1.00  0.00     0.030 A 
HETATM   17  C   UNL     1      53.553  -5.698 -17.950  1.00  0.00     0.016 A 
BRANCH  15  18
HETATM   18  N   UNL     1      53.951  -6.782 -14.361  1.00  0.00    -0.390 N 
HETATM   19  C   UNL     1      54.358  -7.957 -13.603  1.00  0.00     0.149 C 
HETATM   20  C   UNL     1      53.575  -5.576 -13.636  1.00  0.00     0.149 C 
ENDBRANCH  15  18
ENDBRANCH   4  12
TORSDOF 2
ENDMDL
MODEL 7
REMARK VINA RESULT:      -9.0      1.514      2.517
REMARK  2 active torsions:
REMARK  status: ('A' for Active; 'I' for Inactive)
REMARK    1  A    between atoms: N_3  and  C_15 
REMARK    2  A    between atoms: C_5  and  C_7 
ROOT
HETATM    1  S   UNL     1      54.279  -8.544 -17.145  1.00  0.00    -0.069 SA
HETATM    2  N   UNL     1      53.706  -6.076 -17.172  1.00  0.00    -0.344 N 
HETATM    3  C   UNL     1      53.837  -6.455 -15.860  1.00  0.00     0.052 A 
HETATM    4  C   UNL     1      53.950  -7.128 -18.026  1.00  0.00     0.087 A 
HETATM    5  C   UNL     1      54.154  -7.790 -15.664  1.00  0.00     0.034 A 
HETATM    6  C   UNL     1      53.665  -5.621 -14.742  1.00  0.00     0.031 A 
HETATM    7  C   UNL     1      54.316  -8.348 -14.399  1.00  0.00     0.028 A 
HETATM    8  C   UNL     1      53.285  -4.715 -17.534  1.00  0.00     0.157 C 
HETATM    9  C   UNL     1      54.152  -7.518 -13.275  1.00  0.00    -0.061 A 
HETATM   10  C   UNL     1      53.825  -6.157 -13.454  1.00  0.00     0.009 A 
HETATM   11  C   UNL     1      54.316  -8.066 -11.889  1.00  0.00     0.048 C 
ENDROOT
BRANCH   4  12
HETATM   12  C   UNL     1      53.982  -7.123 -19.524  1.00  0.00    -0.002 A 
HETATM   13  C   UNL     1      54.257  -8.271 -20.288  1.00  0.00     0.016 A 
HETATM   14  C   UNL     1      54.255  -8.226 -21.685  1.00  0.00     0.030 A 
HETATM   15  C   UNL     1      53.968  -7.031 -22.379  1.00  0.00     0.029 A 
HETATM   16  C   UNL     1      53.671  -5.887 -21.609  1.00  0.00     0.030 A 
HETATM   17  C   UNL     1      53.669  -5.937 -20.213  1.00  0.00     0.016 A 
BRANCH  15  18
HETATM   18  N   UNL     1      53.966  -6.984 -23.822  1.00  0.00    -0.390 N 
HETATM   19  C   UNL     1      53.697  -5.735 -24.523  1.00  0.00     0.149 C 
HETATM   20  C   UNL     1      54.232  -8.183 -24.605  1.00  0.00     0.149 C 
ENDBRANCH  15  18
ENDBRANCH   4  12
TORSDOF 2
ENDMDL
MODEL 8
REMARK VINA RESULT:      -8.8      4.259     10.422
REMARK  2 active torsions:
REMARK  status: ('A' for Active; 'I' for Inactive)
REMARK    1  A    between atoms: N_3  and  C_15 
REMARK    2  A    between atoms: C_5  and  C_7 
ROOT
HETATM    1  S   UNL     1      53.475  -5.447 -10.933  1.00  0.00    -0.069 SA
HETATM    2  N   UNL     1      54.138  -7.887 -11.094  1.00  0.00    -0.344 N 
HETATM    3  C   UNL     1      54.057  -7.397 -12.373  1.00  0.00     0.052 A 
HETATM    4  C   UNL     1      53.868  -6.910 -10.163  1.00  0.00     0.087 A 
HETATM    5  C   UNL     1      53.702  -6.061 -12.467  1.00  0.00     0.034 A 
HETATM    6  C   UNL     1      54.285  -8.129 -13.551  1.00  0.00     0.031 A 
HETATM    7  C   UNL     1      53.564  -5.401 -13.685  1.00  0.00     0.028 A 
HETATM    8  C   UNL     1      54.416  -9.308 -10.839  1.00  0.00     0.157 C 
HETATM    9  C   UNL     1      53.796  -6.126 -14.869  1.00  0.00    -0.061 A 
HETATM   10  C   UNL     1      54.155  -7.488 -14.794  1.00  0.00     0.009 A 
HETATM   11  C   UNL     1      53.663  -5.466 -16.208  1.00  0.00     0.048 C 
ENDROOT
BRANCH   4  12
HETATM   12  C   UNL     1      53.919  -7.009  -8.669  1.00  0.00    -0.002 A 
HETATM   13  C   UNL     1      53.532  -5.958  -7.818  1.00  0.00     0.016 A 
HETATM   14  C   UNL     1      53.575  -6.101  -6.428  1.00  0.00     0.030 A 
HETATM   15  C   UNL     1      53.997  -7.306  -5.829  1.00  0.00     0.029 A 
HETATM   16  C   UNL     1      54.363  -8.366  -6.686  1.00  0.00     0.030 A 
HETATM   17  C   UNL     1      54.315  -8.221  -8.074  1.00  0.00     0.016 A 
BRANCH  15  18
HETATM   18  N   UNL     1      54.042  -7.455  -4.393  1.00  0.00    -0.390 N 
HETATM   19  C   UNL     1      54.178  -8.773  -3.787  1.00  0.00     0.149 C 
HETATM   20  C   UNL     1      53.951  -6.291  -3.523  1.00  0.00     0.149 C 
ENDBRANCH  15  18
ENDBRANCH   4  12
TORSDOF 2
ENDMDL
MODEL 9
REMARK VINA RESULT:      -8.7      2.505      8.626
REMARK  2 active torsions:
REMARK  status: ('A' for Active; 'I' for Inactive)
REMARK    1  A    between atoms: N_3  and  C_15 
REMARK    2  A    between atoms: C_5  and  C_7 
ROOT
HETATM    1  S   UNL     1      54.589  -8.731 -14.539  1.00  0.00    -0.069 SA
HETATM    2  N   UNL     1      53.722  -6.352 -14.445  1.00  0.00    -0.344 N 
HETATM    3  C   UNL     1      53.808  -6.707 -15.767  1.00  0.00     0.052 A 
HETATM    4  C   UNL     1      54.098  -7.388 -13.620  1.00  0.00     0.087 A 
HETATM    5  C   UNL     1      54.270  -7.993 -16.000  1.00  0.00     0.034 A 
HETATM    6  C   UNL     1      53.488  -5.886 -16.863  1.00  0.00     0.031 A 
HETATM    7  C   UNL     1      54.429  -8.517 -17.280  1.00  0.00     0.028 A 
HETATM    8  C   UNL     1      53.334  -4.992 -14.046  1.00  0.00     0.157 C 
HETATM    9  C   UNL     1      54.105  -7.703 -18.381  1.00  0.00    -0.061 A 
HETATM   10  C   UNL     1      53.636  -6.390 -18.165  1.00  0.00     0.009 A 
HETATM   11  C   UNL     1      54.255  -8.216 -19.782  1.00  0.00     0.048 C 
ENDROOT
BRANCH   4  12
HETATM   12  C   UNL     1      54.081  -7.439 -12.123  1.00  0.00    -0.002 A 
HETATM   13  C   UNL     1      54.465  -8.577 -11.391  1.00  0.00     0.016 A 
HETATM   14  C   UNL     1      54.454  -8.574  -9.993  1.00  0.00     0.030 A 
HETATM   15  C   UNL     1      54.068  -7.428  -9.266  1.00  0.00     0.029 A 
HETATM   16  C   UNL     1      53.705  -6.282 -10.004  1.00  0.00     0.030 A 
HETATM   17  C   UNL     1      53.721  -6.287 -11.401  1.00  0.00     0.016 A 
BRANCH  15  18
HETATM   18  N   UNL     1      54.055  -7.425  -7.822  1.00  0.00    -0.390 N 
HETATM   19  C   UNL     1      54.586  -8.556  -7.073  1.00  0.00     0.149 C 
HETATM   20  C   UNL     1      53.511  -6.291  -7.088  1.00  0.00     0.149 C 
ENDBRANCH  15  18
ENDBRANCH   4  12
TORSDOF 2
ENDMDL
MODEL 10
REMARK VINA RESULT:      -8.7      2.273      4.417
REMARK  2 active torsions:
REMARK  status: ('A' for Active; 'I' for Inactive)
REMARK    1  A    between atoms: N_3  and  C_15 
REMARK    2  A    between atoms: C_5  and  C_7 
ROOT
HETATM    1  S   UNL     1      53.551  -5.580 -19.852  1.00  0.00    -0.069 SA
HETATM    2  N   UNL     1      54.323  -7.987 -20.029  1.00  0.00    -0.344 N 
HETATM    3  C   UNL     1      54.183  -7.696 -18.696  1.00  0.00     0.052 A 
HETATM    4  C   UNL     1      53.980  -6.911 -20.817  1.00  0.00     0.087 A 
HETATM    5  C   UNL     1      53.762  -6.405 -18.418  1.00  0.00     0.034 A 
HETATM    6  C   UNL     1      54.440  -8.576 -17.630  1.00  0.00     0.031 A 
HETATM    7  C   UNL     1      53.575  -5.935 -17.121  1.00  0.00     0.028 A 
HETATM    8  C   UNL     1      54.848  -9.285 -20.475  1.00  0.00     0.157 C 
HETATM    9  C   UNL     1      53.825  -6.812 -16.049  1.00  0.00    -0.061 A 
HETATM   10  C   UNL     1      54.258  -8.129 -16.312  1.00  0.00     0.009 A 
HETATM   11  C   UNL     1      53.639  -6.360 -14.632  1.00  0.00     0.048 C 
ENDROOT
BRANCH   4  12
HETATM   12  C   UNL     1      53.924  -6.833 -22.313  1.00  0.00    -0.002 A 
HETATM   13  C   UNL     1      54.166  -7.939 -23.146  1.00  0.00     0.016 A 
HETATM   14  C   UNL     1      54.082  -7.827 -24.537  1.00  0.00     0.030 A 
HETATM   15  C   UNL     1      53.741  -6.605 -25.154  1.00  0.00     0.029 A 
HETATM   16  C   UNL     1      53.477  -5.504 -24.313  1.00  0.00     0.030 A 
HETATM   17  C   UNL     1      53.558  -5.620 -22.923  1.00  0.00     0.016 A 
BRANCH  15  18
HETATM   18  N   UNL     1      53.654  -6.488 -26.591  1.00  0.00    -0.390 N 
HETATM   19  C   UNL     1      54.094  -5.273 -27.264  1.00  0.00     0.149 C 
HETATM   20  C   UNL     1      53.125  -7.582 -27.394  1.00  0.00     0.149 C 
ENDBRANCH  15  18
ENDBRANCH   4  12
TORSDOF 2
ENDMDL
MODEL 11
REMARK VINA RESULT:      -8.6      1.680      7.981
REMARK  2 active torsions:
REMARK  status: ('A' for Active; 'I' for Inactive)
REMARK    1  A    between atoms: N_3  and  C_15 
REMARK    2  A    between atoms: C_5  and  C_7 
ROOT
HETATM    1  S   UNL     1      54.614  -8.723 -19.329  1.00  0.00    -0.069 SA
HETATM    2  N   UNL     1      53.707  -6.358 -19.266  1.00  0.00    -0.344 N 
HETATM    3  C   UNL     1      53.807  -6.726 -20.584  1.00  0.00     0.052 A 
HETATM    4  C   UNL     1      54.095  -7.379 -18.428  1.00  0.00     0.087 A 
HETATM    5  C   UNL     1      54.292  -8.006 -20.800  1.00  0.00     0.034 A 
HETATM    6  C   UNL     1      53.481  -5.922 -21.690  1.00  0.00     0.031 A 
HETATM    7  C   UNL     1      54.467  -8.541 -22.073  1.00  0.00     0.028 A 
HETATM    8  C   UNL     1      53.295  -5.000 -18.883  1.00  0.00     0.157 C 
HETATM    9  C   UNL     1      54.137  -7.745 -23.185  1.00  0.00    -0.061 A 
HETATM   10  C   UNL     1      53.645  -6.437 -22.985  1.00  0.00     0.009 A 
HETATM   11  C   UNL     1      54.304  -8.269 -24.579  1.00  0.00     0.048 C 
ENDROOT
BRANCH   4  12
HETATM   12  C   UNL     1      54.069  -7.415 -16.930  1.00  0.00    -0.002 A 
HETATM   13  C   UNL     1      54.462  -8.540 -16.184  1.00  0.00     0.016 A 
HETATM   14  C   UNL     1      54.443  -8.522 -14.786  1.00  0.00     0.030 A 
HETATM   15  C   UNL     1      54.038  -7.374 -14.074  1.00  0.00     0.029 A 
HETATM   16  C   UNL     1      53.666  -6.240 -14.826  1.00  0.00     0.030 A 
HETATM   17  C   UNL     1      53.691  -6.259 -16.223  1.00  0.00     0.016 A 
BRANCH  15  18
HETATM   18  N   UNL     1      54.017  -7.355 -12.630  1.00  0.00    -0.390 N 
HETATM   19  C   UNL     1      53.628  -6.150 -11.910  1.00  0.00     0.149 C 
HETATM   20  C   UNL     1      54.385  -8.539 -11.867  1.00  0.00     0.149 C 
ENDBRANCH  15  18
ENDBRANCH   4  12
TORSDOF 2
ENDMDL
MODEL 12
REMARK VINA RESULT:      -8.3      5.211     11.282
REMARK  2 active torsions:
REMARK  status: ('A' for Active; 'I' for Inactive)
REMARK    1  A    between atoms: N_3  and  C_15 
REMARK    2  A    between atoms: C_5  and  C_7 
ROOT
HETATM    1  S   UNL     1      54.632  -8.889 -10.443  1.00  0.00    -0.069 SA
HETATM    2  N   UNL     1      53.909  -6.606  -9.613  1.00  0.00    -0.344 N 
HETATM    3  C   UNL     1      53.840  -6.588 -10.984  1.00  0.00     0.052 A 
HETATM    4  C   UNL     1      54.311  -7.838  -9.147  1.00  0.00     0.087 A 
HETATM    5  C   UNL     1      54.206  -7.772 -11.605  1.00  0.00     0.034 A 
HETATM    6  C   UNL     1      53.455  -5.491 -11.774  1.00  0.00     0.031 A 
HETATM    7  C   UNL     1      54.204  -7.929 -12.988  1.00  0.00     0.028 A 
HETATM    8  C   UNL     1      53.638  -5.399  -8.821  1.00  0.00     0.157 C 
HETATM    9  C   UNL     1      53.814  -6.837 -13.786  1.00  0.00    -0.061 A 
HETATM   10  C   UNL     1      53.442  -5.622 -13.172  1.00  0.00     0.009 A 
HETATM   11  C   UNL     1      53.793  -6.950 -15.280  1.00  0.00     0.048 C 
ENDROOT
BRANCH   4  12
HETATM   12  C   UNL     1      54.443  -8.297  -7.727  1.00  0.00    -0.002 A 
HETATM   13  C   UNL     1      53.597  -7.850  -6.696  1.00  0.00     0.016 A 
HETATM   14  C   UNL     1      53.741  -8.322  -5.388  1.00  0.00     0.030 A 
HETATM   15  C   UNL     1      54.733  -9.268  -5.056  1.00  0.00     0.029 A 
HETATM   16  C   UNL     1      55.566  -9.730  -6.098  1.00  0.00     0.030 A 
HETATM   17  C   UNL     1      55.415  -9.260  -7.404  1.00  0.00     0.016 A 
BRANCH  15  18
HETATM   18  N   UNL     1      54.884  -9.755  -3.705  1.00  0.00    -0.390 N 
HETATM   19  C   UNL     1      54.293  -9.034  -2.586  1.00  0.00     0.149 C 
HETATM   20  C   UNL     1      55.632 -10.975  -3.435  1.00  0.00     0.149 C 
ENDBRANCH  15  18
ENDBRANCH   4  12
TORSDOF 2
ENDMDL
MODEL 13
REMARK VINA RESULT:      -8.3      2.336      8.917
REMARK  2 active torsions:
REMARK  status: ('A' for Active; 'I' for Inactive)
REMARK    1  A    between atoms: N_3  and  C_15 
REMARK    2  A    between atoms: C_5  and  C_7 
ROOT
HETATM    1  S   UNL     1      54.341  -8.394 -22.111  1.00  0.00    -0.069 SA
HETATM    2  N   UNL     1      53.791  -5.923 -22.221  1.00  0.00    -0.344 N 
HETATM    3  C   UNL     1      53.841  -6.393 -23.510  1.00  0.00     0.052 A 
HETATM    4  C   UNL     1      54.022  -6.930 -21.311  1.00  0.00     0.087 A 
HETATM    5  C   UNL     1      54.133  -7.742 -23.632  1.00  0.00     0.034 A 
HETATM    6  C   UNL     1      53.639  -5.628 -24.672  1.00  0.00     0.031 A 
HETATM    7  C   UNL     1      54.232  -8.384 -24.863  1.00  0.00     0.028 A 
HETATM    8  C   UNL     1      53.581  -4.497 -21.938  1.00  0.00     0.157 C 
HETATM    9  C   UNL     1      54.026  -7.627 -26.031  1.00  0.00    -0.061 A 
HETATM   10  C   UNL     1      53.731  -6.251 -25.928  1.00  0.00     0.009 A 
HETATM   11  C   UNL     1      54.119  -8.266 -27.384  1.00  0.00     0.048 C 
ENDROOT
BRANCH   4  12
HETATM   12  C   UNL     1      53.986  -6.857 -19.815  1.00  0.00    -0.002 A 
HETATM   13  C   UNL     1      53.605  -5.699 -19.113  1.00  0.00     0.016 A 
HETATM   14  C   UNL     1      53.564  -5.681 -17.716  1.00  0.00     0.030 A 
HETATM   15  C   UNL     1      53.892  -6.826 -16.960  1.00  0.00     0.029 A 
HETATM   16  C   UNL     1      54.251  -7.993 -17.668  1.00  0.00     0.030 A 
HETATM   17  C   UNL     1      54.287  -8.007 -19.064  1.00  0.00     0.016 A 
BRANCH  15  18
HETATM   18  N   UNL     1      53.851  -6.809 -15.516  1.00  0.00    -0.390 N 
HETATM   19  C   UNL     1      54.005  -8.042 -14.755  1.00  0.00     0.149 C 
HETATM   20  C   UNL     1      53.653  -5.560 -14.794  1.00  0.00     0.149 C 
ENDBRANCH  15  18
ENDBRANCH   4  12
TORSDOF 2
ENDMDL
MODEL 14
REMARK VINA RESULT:      -8.0      4.402      7.964
REMARK  2 active torsions:
REMARK  status: ('A' for Active; 'I' for Inactive)
REMARK    1  A    between atoms: N_3  and  C_15 
REMARK    2  A    between atoms: C_5  and  C_7 
ROOT
HETATM    1  S   UNL     1      54.331  -8.613  -7.947  1.00  0.00    -0.069 SA
HETATM    2  N   UNL     1      53.635  -6.177  -7.922  1.00  0.00    -0.344 N 
HETATM    3  C   UNL     1      53.814  -6.568  -6.619  1.00  0.00     0.052 A 
HETATM    4  C   UNL     1      53.913  -7.203  -8.798  1.00  0.00     0.087 A 
HETATM    5  C   UNL     1      54.200  -7.888  -6.451  1.00  0.00     0.034 A 
HETATM    6  C   UNL     1      53.624  -5.761  -5.484  1.00  0.00     0.031 A 
HETATM    7  C   UNL     1      54.419  -8.457  -5.199  1.00  0.00     0.028 A 
HETATM    8  C   UNL     1      53.138  -4.834  -8.253  1.00  0.00     0.157 C 
HETATM    9  C   UNL     1      54.237  -7.653  -4.059  1.00  0.00    -0.061 A 
HETATM   10  C   UNL     1      53.839  -6.308  -4.209  1.00  0.00     0.009 A 
HETATM   11  C   UNL     1      54.459  -8.212  -2.686  1.00  0.00     0.048 C 
ENDROOT
BRANCH   4  12
HETATM   12  C   UNL     1      53.912  -7.173 -10.296  1.00  0.00    -0.002 A 
HETATM   13  C   UNL     1      53.579  -6.026 -11.039  1.00  0.00     0.016 A 
HETATM   14  C   UNL     1      53.613  -6.037 -12.437  1.00  0.00     0.030 A 
HETATM   15  C   UNL     1      53.991  -7.193 -13.151  1.00  0.00     0.029 A 
HETATM   16  C   UNL     1      54.346  -8.334 -12.402  1.00  0.00     0.030 A 
HETATM   17  C   UNL     1      54.315  -8.319 -11.005  1.00  0.00     0.016 A 
BRANCH  15  18
HETATM   18  N   UNL     1      54.025  -7.205 -14.595  1.00  0.00    -0.390 N 
HETATM   19  C   UNL     1      54.352  -8.426 -15.319  1.00  0.00     0.149 C 
HETATM   20  C   UNL     1      53.735  -5.996 -15.354  1.00  0.00     0.149 C 
ENDBRANCH  15  18
ENDBRANCH   4  12
TORSDOF 2
ENDMDL
MODEL 15
REMARK VINA RESULT:      -7.6     19.642     22.012
REMARK  2 active torsions:
REMARK  status: ('A' for Active; 'I' for Inactive)
REMARK    1  A    between atoms: N_3  and  C_15 
REMARK    2  A    between atoms: C_5  and  C_7 
ROOT
HETATM    1  S   UNL     1      40.095   6.081 -16.094  1.00  0.00    -0.069 SA
HETATM    2  N   UNL     1      39.178   8.442 -16.155  1.00  0.00    -0.344 N 
HETATM    3  C   UNL     1      39.284   8.007 -17.452  1.00  0.00     0.052 A 
HETATM    4  C   UNL     1      39.568   7.467 -15.264  1.00  0.00     0.087 A 
HETATM    5  C   UNL     1      39.775   6.720 -17.600  1.00  0.00     0.034 A 
HETATM    6  C   UNL     1      38.958   8.752 -18.599  1.00  0.00     0.031 A 
HETATM    7  C   UNL     1      39.956   6.120 -18.844  1.00  0.00     0.028 A 
HETATM    8  C   UNL     1      38.759   9.816 -15.844  1.00  0.00     0.157 C 
HETATM    9  C   UNL     1      39.626   6.857 -19.996  1.00  0.00    -0.061 A 
HETATM   10  C   UNL     1      39.129   8.171 -19.866  1.00  0.00     0.009 A 
HETATM   11  C   UNL     1      39.800   6.262 -21.361  1.00  0.00     0.048 C 
ENDROOT
BRANCH   4  12
HETATM   12  C   UNL     1      39.537   7.509 -13.767  1.00  0.00    -0.002 A 
HETATM   13  C   UNL     1      39.074   8.621 -13.041  1.00  0.00     0.016 A 
HETATM   14  C   UNL     1      39.042   8.608 -11.643  1.00  0.00     0.030 A 
HETATM   15  C   UNL     1      39.463   7.478 -10.911  1.00  0.00     0.029 A 
HETATM   16  C   UNL     1      39.906   6.357 -11.644  1.00  0.00     0.030 A 
HETATM   17  C   UNL     1      39.932   6.371 -13.041  1.00  0.00     0.016 A 
BRANCH  15  18
HETATM   18  N   UNL     1      39.431   7.465  -9.468  1.00  0.00    -0.390 N 
HETATM   19  C   UNL     1      39.860   6.286  -8.727  1.00  0.00     0.149 C 
HETATM   20  C   UNL     1      38.968   8.629  -8.725  1.00  0.00     0.149 C 
ENDBRANCH  15  18
ENDBRANCH   4  12
TORSDOF 2
ENDMDL
MODEL 16
REMARK VINA RESULT:      -7.6     19.641     20.938
REMARK  2 active torsions:
REMARK  status: ('A' for Active; 'I' for Inactive)
REMARK    1  A    between atoms: N_3  and  C_15 
REMARK    2  A    between atoms: C_5  and  C_7 
ROOT
HETATM    1  S   UNL     1      40.068   5.994 -11.318  1.00  0.00    -0.069 SA
HETATM    2  N   UNL     1      39.008   8.295 -11.266  1.00  0.00    -0.344 N 
HETATM    3  C   UNL     1      39.221   7.910  -9.966  1.00  0.00     0.052 A 
HETATM    4  C   UNL     1      39.455   7.342 -12.153  1.00  0.00     0.087 A 
HETATM    5  C   UNL     1      39.801   6.660  -9.813  1.00  0.00     0.034 A 
HETATM    6  C   UNL     1      38.891   8.656  -8.822  1.00  0.00     0.031 A 
HETATM    7  C   UNL     1      40.081   6.106  -8.567  1.00  0.00     0.028 A 
HETATM    8  C   UNL     1      38.319   9.554 -11.583  1.00  0.00     0.157 C 
HETATM    9  C   UNL     1      39.759   6.850  -7.416  1.00  0.00    -0.061 A 
HETATM   10  C   UNL     1      39.164   8.122  -7.552  1.00  0.00     0.009 A 
HETATM   11  C   UNL     1      40.038   6.303  -6.049  1.00  0.00     0.048 C 
ENDROOT
BRANCH   4  12
HETATM   12  C   UNL     1      39.476   7.401 -13.650  1.00  0.00    -0.002 A 
HETATM   13  C   UNL     1      39.211   8.578 -14.373  1.00  0.00     0.016 A 
HETATM   14  C   UNL     1      39.263   8.594 -15.770  1.00  0.00     0.030 A 
HETATM   15  C   UNL     1      39.594   7.435 -16.504  1.00  0.00     0.029 A 
HETATM   16  C   UNL     1      39.881   6.262 -15.773  1.00  0.00     0.030 A 
HETATM   17  C   UNL     1      39.832   6.251 -14.377  1.00  0.00     0.016 A 
BRANCH  15  18
HETATM   18  N   UNL     1      39.647   7.450 -17.947  1.00  0.00    -0.390 N 
HETATM   19  C   UNL     1      39.889   6.222 -18.693  1.00  0.00     0.149 C 
HETATM   20  C   UNL     1      39.462   8.692 -18.684  1.00  0.00     0.149 C 
ENDBRANCH  15  18
ENDBRANCH   4  12
TORSDOF 2
ENDMDL
MODEL 17
REMARK VINA RESULT:      -7.5     19.769     22.196
REMARK  2 active torsions:
REMARK  status: ('A' for Active; 'I' for Inactive)
REMARK    1  A    between atoms: N_3  and  C_15 
REMARK    2  A    between atoms: C_5  and  C_7 
ROOT
HETATM    1  S   UNL     1      39.983   6.098 -15.002  1.00  0.00    -0.069 SA
HETATM    2  N   UNL     1      39.213   8.512 -15.044  1.00  0.00    -0.344 N 
HETATM    3  C   UNL     1      39.304   8.085 -16.345  1.00  0.00     0.052 A 
HETATM    4  C   UNL     1      39.534   7.505 -14.161  1.00  0.00     0.087 A 
HETATM    5  C   UNL     1      39.716   6.771 -16.503  1.00  0.00     0.034 A 
HETATM    6  C   UNL     1      39.034   8.860 -17.486  1.00  0.00     0.031 A 
HETATM    7  C   UNL     1      39.872   6.175 -17.752  1.00  0.00     0.028 A 
HETATM    8  C   UNL     1      38.876   9.905 -14.721  1.00  0.00     0.157 C 
HETATM    9  C   UNL     1      39.598   6.943 -18.899  1.00  0.00    -0.061 A 
HETATM   10  C   UNL     1      39.181   8.284 -18.758  1.00  0.00     0.009 A 
HETATM   11  C   UNL     1      39.747   6.353 -20.269  1.00  0.00     0.048 C 
ENDROOT
BRANCH   4  12
HETATM   12  C   UNL     1      39.492   7.533 -12.664  1.00  0.00    -0.002 A 
HETATM   13  C   UNL     1      38.978   8.618 -11.932  1.00  0.00     0.016 A 
HETATM   14  C   UNL     1      38.938   8.592 -10.534  1.00  0.00     0.030 A 
HETATM   15  C   UNL     1      39.402   7.475  -9.809  1.00  0.00     0.029 A 
HETATM   16  C   UNL     1      39.896   6.379 -10.548  1.00  0.00     0.030 A 
HETATM   17  C   UNL     1      39.931   6.406 -11.944  1.00  0.00     0.016 A 
BRANCH  15  18
HETATM   18  N   UNL     1      39.361   7.448  -8.366  1.00  0.00    -0.390 N 
HETATM   19  C   UNL     1      38.736   8.532  -7.621  1.00  0.00     0.149 C 
HETATM   20  C   UNL     1      39.946   6.337  -7.627  1.00  0.00     0.149 C 
ENDBRANCH  15  18
ENDBRANCH   4  12
TORSDOF 2
ENDMDL
MODEL 18
REMARK VINA RESULT:      -7.5     20.031     22.969
REMARK  2 active torsions:
REMARK  status: ('A' for Active; 'I' for Inactive)
REMARK    1  A    between atoms: N_3  and  C_15 
REMARK    2  A    between atoms: C_5  and  C_7 
ROOT
HETATM    1  S   UNL     1      40.084   6.098 -11.304  1.00  0.00    -0.069 SA
HETATM    2  N   UNL     1      39.149   8.453 -11.358  1.00  0.00    -0.344 N 
HETATM    3  C   UNL     1      39.261   8.023 -12.656  1.00  0.00     0.052 A 
HETATM    4  C   UNL     1      39.544   7.477 -10.470  1.00  0.00     0.087 A 
HETATM    5  C   UNL     1      39.762   6.740 -12.809  1.00  0.00     0.034 A 
HETATM    6  C   UNL     1      38.931   8.770 -13.801  1.00  0.00     0.031 A 
HETATM    7  C   UNL     1      39.950   6.148 -14.054  1.00  0.00     0.028 A 
HETATM    8  C   UNL     1      38.718   9.822 -11.042  1.00  0.00     0.157 C 
HETATM    9  C   UNL     1      39.617   6.886 -15.204  1.00  0.00    -0.061 A 
HETATM   10  C   UNL     1      39.109   8.196 -15.070  1.00  0.00     0.009 A 
HETATM   11  C   UNL     1      39.798   6.297 -16.571  1.00  0.00     0.048 C 
ENDROOT
BRANCH   4  12
HETATM   12  C   UNL     1      39.510   7.513  -8.972  1.00  0.00    -0.002 A 
HETATM   13  C   UNL     1      38.998   8.601  -8.244  1.00  0.00     0.016 A 
HETATM   14  C   UNL     1      38.965   8.583  -6.846  1.00  0.00     0.030 A 
HETATM   15  C   UNL     1      39.434   7.470  -6.117  1.00  0.00     0.029 A 
HETATM   16  C   UNL     1      39.926   6.371  -6.853  1.00  0.00     0.030 A 
HETATM   17  C   UNL     1      39.954   6.391  -8.249  1.00  0.00     0.016 A 
BRANCH  15  18
HETATM   18  N   UNL     1      39.401   7.451  -4.674  1.00  0.00    -0.390 N 
HETATM   19  C   UNL     1      38.915   8.603  -3.927  1.00  0.00     0.149 C 
HETATM   20  C   UNL     1      39.855   6.279  -3.936  1.00  0.00     0.149 C 
ENDBRANCH  15  18
ENDBRANCH   4  12
TORSDOF 2
ENDMDL
MODEL 19
REMARK VINA RESULT:      -7.4     19.571     20.623
REMARK  2 active torsions:
REMARK  status: ('A' for Active; 'I' for Inactive)
REMARK    1  A    between atoms: N_3  and  C_15 
REMARK    2  A    between atoms: C_5  and  C_7 
ROOT
HETATM    1  S   UNL     1      39.885   6.052 -14.692  1.00  0.00    -0.069 SA
HETATM    2  N   UNL     1      39.027   8.436 -14.637  1.00  0.00    -0.344 N 
HETATM    3  C   UNL     1      39.210   8.033 -13.339  1.00  0.00     0.052 A 
HETATM    4  C   UNL     1      39.387   7.447 -15.525  1.00  0.00     0.087 A 
HETATM    5  C   UNL     1      39.681   6.739 -13.187  1.00  0.00     0.034 A 
HETATM    6  C   UNL     1      38.948   8.805 -12.193  1.00  0.00     0.031 A 
HETATM    7  C   UNL     1      39.917   6.163 -11.941  1.00  0.00     0.028 A 
HETATM    8  C   UNL     1      38.447   9.749 -14.953  1.00  0.00     0.157 C 
HETATM    9  C   UNL     1      39.663   6.932 -10.790  1.00  0.00    -0.061 A 
HETATM   10  C   UNL     1      39.178   8.250 -10.924  1.00  0.00     0.009 A 
HETATM   11  C   UNL     1      39.899   6.364  -9.423  1.00  0.00     0.048 C 
ENDROOT
BRANCH   4  12
HETATM   12  C   UNL     1      39.409   7.504 -17.023  1.00  0.00    -0.002 A 
HETATM   13  C   UNL     1      39.086   8.664 -17.749  1.00  0.00     0.016 A 
HETATM   14  C   UNL     1      39.141   8.679 -19.146  1.00  0.00     0.030 A 
HETATM   15  C   UNL     1      39.531   7.537 -19.876  1.00  0.00     0.029 A 
HETATM   16  C   UNL     1      39.876   6.383 -19.142  1.00  0.00     0.030 A 
HETATM   17  C   UNL     1      39.825   6.372 -17.746  1.00  0.00     0.016 A 
BRANCH  15  18
HETATM   18  N   UNL     1      39.587   7.552 -21.319  1.00  0.00    -0.390 N 
HETATM   19  C   UNL     1      39.943   6.349 -22.060  1.00  0.00     0.149 C 
HETATM   20  C   UNL     1      39.291   8.769 -22.062  1.00  0.00     0.149 C 
ENDBRANCH  15  18
ENDBRANCH   4  12
TORSDOF 2
ENDMDL
MODEL 20
REMARK VINA RESULT:      -7.2     19.768     21.107
REMARK  2 active torsions:
REMARK  status: ('A' for Active; 'I' for Inactive)
REMARK    1  A    between atoms: N_3  and  C_15 
REMARK    2  A    between atoms: C_5  and  C_7 
ROOT
HETATM    1  S   UNL     1      39.864   5.996 -10.869  1.00  0.00    -0.069 SA
HETATM    2  N   UNL     1      39.074   8.403 -10.933  1.00  0.00    -0.344 N 
HETATM    3  C   UNL     1      39.223   8.053  -9.615  1.00  0.00     0.052 A 
HETATM    4  C   UNL     1      39.422   7.367 -11.771  1.00  0.00     0.087 A 
HETATM    5  C   UNL     1      39.654   6.754  -9.399  1.00  0.00     0.034 A 
HETATM    6  C   UNL     1      38.964   8.881  -8.509  1.00  0.00     0.031 A 
HETATM    7  C   UNL     1      39.850   6.226  -8.125  1.00  0.00     0.028 A 
HETATM    8  C   UNL     1      38.539   9.717 -11.316  1.00  0.00     0.157 C 
HETATM    9  C   UNL     1      39.599   7.051  -7.013  1.00  0.00    -0.061 A 
HETATM   10  C   UNL     1      39.156   8.376  -7.213  1.00  0.00     0.009 A 
HETATM   11  C   UNL     1      39.794   6.536  -5.619  1.00  0.00     0.048 C 
ENDROOT
BRANCH   4  12
HETATM   12  C   UNL     1      39.471   7.358 -13.269  1.00  0.00    -0.002 A 
HETATM   13  C   UNL     1      39.839   6.225 -14.016  1.00  0.00     0.016 A 
HETATM   14  C   UNL     1      39.850   6.254 -15.414  1.00  0.00     0.030 A 
HETATM   15  C   UNL     1      39.485   7.416 -16.125  1.00  0.00     0.029 A 
HETATM   16  C   UNL     1      39.095   8.544 -15.372  1.00  0.00     0.030 A 
HETATM   17  C   UNL     1      39.081   8.510 -13.975  1.00  0.00     0.016 A 
BRANCH  15  18
HETATM   18  N   UNL     1      39.497   7.448 -17.568  1.00  0.00    -0.390 N 
HETATM   19  C   UNL     1      39.166   8.671 -18.286  1.00  0.00     0.149 C 
HETATM   20  C   UNL     1      39.840   6.257 -18.334  1.00  0.00     0.149 C 
ENDBRANCH  15  18
ENDBRANCH   4  12
TORSDOF 2
ENDMDL
