MODEL 1
REMARK VINA RESULT:      -4.7      0.000      0.000
REMARK  15 active torsions:
REMARK  status: ('A' for Active; 'I' for Inactive)
REMARK    1  A    between atoms: O_1  and  C_18 
REMARK    2  A    between atoms: C_3  and  C_4 
REMARK    3  A    between atoms: C_3  and  C_5 
REMARK    4  A    between atoms: C_4  and  C_6 
REMARK    5  A    between atoms: C_5  and  C_7 
REMARK    6  A    between atoms: C_6  and  C_8 
REMARK    7  A    between atoms: C_7  and  C_9 
REMARK    8  A    between atoms: C_8  and  C_10 
REMARK    9  A    between atoms: C_9  and  C_11 
REMARK   10  A    between atoms: C_10  and  C_12 
REMARK   11  A    between atoms: C_11  and  C_13 
REMARK   12  A    between atoms: C_12  and  C_14 
REMARK   13  A    between atoms: C_13  and  C_15 
REMARK   14  A    between atoms: C_14  and  C_16 
REMARK   15  A    between atoms: C_16  and  C_18 
ROOT
HETATM    1  O   UNL     1      32.535 -20.550 -14.615  1.00  0.00    -0.776 OA
HETATM    2  H   UNL     1      32.871 -20.860 -13.763  1.00  0.00     0.167 HD
ENDROOT
BRANCH   1   3
HETATM    3  C   UNL     1      31.220 -20.606 -14.916  1.00  0.00     0.139 C 
HETATM    4  O   UNL     1      30.868 -20.928 -16.042  1.00  0.00    -0.650 OA
BRANCH   3   5
HETATM    5  C   UNL     1      30.212 -20.269 -13.848  1.00  0.00     0.110 C 
BRANCH   5   6
HETATM    6  C   UNL     1      30.855 -19.740 -12.557  1.00  0.00     0.010 C 
BRANCH   6   7
HETATM    7  C   UNL     1      30.253 -18.388 -12.158  1.00  0.00     0.001 C 
BRANCH   7   8
HETATM    8  C   UNL     1      30.391 -18.148 -10.649  1.00  0.00     0.000 C 
BRANCH   8   9
HETATM    9  C   UNL     1      30.255 -19.461  -9.868  1.00  0.00     0.000 C 
BRANCH   9  10
HETATM   10  C   UNL     1      29.857 -19.195  -8.412  1.00  0.00     0.000 C 
BRANCH  10  11
HETATM   11  C   UNL     1      30.543 -20.187  -7.465  1.00  0.00     0.000 C 
BRANCH  11  12
HETATM   12  C   UNL     1      31.005 -19.491  -6.179  1.00  0.00     0.000 C 
BRANCH  12  13
HETATM   13  C   UNL     1      30.580 -18.019  -6.167  1.00  0.00     0.000 C 
BRANCH  13  14
HETATM   14  C   UNL     1      29.990 -17.628  -4.806  1.00  0.00     0.000 C 
BRANCH  14  15
HETATM   15  C   UNL     1      29.836 -18.855  -3.900  1.00  0.00     0.000 C 
BRANCH  15  16
HETATM   16  C   UNL     1      30.641 -18.688  -2.606  1.00  0.00     0.000 C 
BRANCH  16  17
HETATM   17  C   UNL     1      30.142 -17.483  -1.800  1.00  0.00    -0.000 C 
BRANCH  17  18
HETATM   18  C   UNL     1      31.306 -16.566  -1.404  1.00  0.00    -0.005 C 
HETATM   19  C   UNL     1      30.885 -15.579  -0.319  1.00  0.00     0.005 C 
ENDBRANCH  17  18
ENDBRANCH  16  17
ENDBRANCH  15  16
ENDBRANCH  14  15
ENDBRANCH  13  14
ENDBRANCH  12  13
ENDBRANCH  11  12
ENDBRANCH  10  11
ENDBRANCH   9  10
ENDBRANCH   8   9
ENDBRANCH   7   8
ENDBRANCH   6   7
ENDBRANCH   5   6
ENDBRANCH   3   5
ENDBRANCH   1   3
TORSDOF 15
ENDMDL
MODEL 2
REMARK VINA RESULT:      -4.7     27.466     28.936
REMARK  15 active torsions:
REMARK  status: ('A' for Active; 'I' for Inactive)
REMARK    1  A    between atoms: O_1  and  C_18 
REMARK    2  A    between atoms: C_3  and  C_4 
REMARK    3  A    between atoms: C_3  and  C_5 
REMARK    4  A    between atoms: C_4  and  C_6 
REMARK    5  A    between atoms: C_5  and  C_7 
REMARK    6  A    between atoms: C_6  and  C_8 
REMARK    7  A    between atoms: C_7  and  C_9 
REMARK    8  A    between atoms: C_8  and  C_10 
REMARK    9  A    between atoms: C_9  and  C_11 
REMARK   10  A    between atoms: C_10  and  C_12 
REMARK   11  A    between atoms: C_11  and  C_13 
REMARK   12  A    between atoms: C_12  and  C_14 
REMARK   13  A    between atoms: C_13  and  C_15 
REMARK   14  A    between atoms: C_14  and  C_16 
REMARK   15  A    between atoms: C_16  and  C_18 
ROOT
HETATM    1  O   UNL     1      39.427   6.261 -16.173  1.00  0.00    -0.776 OA
HETATM    2  H   UNL     1      38.488   6.028 -16.181  1.00  0.00     0.167 HD
ENDROOT
BRANCH   1   3
HETATM    3  C   UNL     1      39.840   7.514 -15.886  1.00  0.00     0.139 C 
HETATM    4  O   UNL     1      39.745   8.392 -16.731  1.00  0.00    -0.650 OA
BRANCH   3   5
HETATM    5  C   UNL     1      40.412   7.800 -14.522  1.00  0.00     0.110 C 
BRANCH   5   6
HETATM    6  C   UNL     1      39.475   7.384 -13.376  1.00  0.00     0.010 C 
BRANCH   6   7
HETATM    7  C   UNL     1      39.737   8.223 -12.121  1.00  0.00     0.001 C 
BRANCH   7   8
HETATM    8  C   UNL     1      40.678   9.394 -12.428  1.00  0.00     0.000 C 
BRANCH   8   9
HETATM    9  C   UNL     1      41.107  10.108 -11.140  1.00  0.00     0.000 C 
BRANCH   9  10
HETATM   10  C   UNL     1      40.236   9.675  -9.955  1.00  0.00     0.000 C 
BRANCH  10  11
HETATM   11  C   UNL     1      41.090   9.054  -8.843  1.00  0.00     0.000 C 
BRANCH  11  12
HETATM   12  C   UNL     1      40.328   9.027  -7.513  1.00  0.00     0.000 C 
BRANCH  12  13
HETATM   13  C   UNL     1      39.045   8.198  -7.630  1.00  0.00     0.000 C 
BRANCH  13  14
HETATM   14  C   UNL     1      38.367   8.038  -6.263  1.00  0.00     0.000 C 
BRANCH  14  15
HETATM   15  C   UNL     1      39.041   6.935  -5.439  1.00  0.00     0.000 C 
BRANCH  15  16
HETATM   16  C   UNL     1      39.171   7.349  -3.969  1.00  0.00     0.000 C 
BRANCH  16  17
HETATM   17  C   UNL     1      39.800   8.742  -3.843  1.00  0.00    -0.000 C 
BRANCH  17  18
HETATM   18  C   UNL     1      41.299   8.700  -4.157  1.00  0.00    -0.005 C 
HETATM   19  C   UNL     1      41.949  10.062  -3.932  1.00  0.00     0.005 C 
ENDBRANCH  17  18
ENDBRANCH  16  17
ENDBRANCH  15  16
ENDBRANCH  14  15
ENDBRANCH  13  14
ENDBRANCH  12  13
ENDBRANCH  11  12
ENDBRANCH  10  11
ENDBRANCH   9  10
ENDBRANCH   8   9
ENDBRANCH   7   8
ENDBRANCH   6   7
ENDBRANCH   5   6
ENDBRANCH   3   5
ENDBRANCH   1   3
TORSDOF 15
ENDMDL
MODEL 3
REMARK VINA RESULT:      -4.7      8.192     10.310
REMARK  15 active torsions:
REMARK  status: ('A' for Active; 'I' for Inactive)
REMARK    1  A    between atoms: O_1  and  C_18 
REMARK    2  A    between atoms: C_3  and  C_4 
REMARK    3  A    between atoms: C_3  and  C_5 
REMARK    4  A    between atoms: C_4  and  C_6 
REMARK    5  A    between atoms: C_5  and  C_7 
REMARK    6  A    between atoms: C_6  and  C_8 
REMARK    7  A    between atoms: C_7  and  C_9 
REMARK    8  A    between atoms: C_8  and  C_10 
REMARK    9  A    between atoms: C_9  and  C_11 
REMARK   10  A    between atoms: C_10  and  C_12 
REMARK   11  A    between atoms: C_11  and  C_13 
REMARK   12  A    between atoms: C_12  and  C_14 
REMARK   13  A    between atoms: C_13  and  C_15 
REMARK   14  A    between atoms: C_14  and  C_16 
REMARK   15  A    between atoms: C_16  and  C_18 
ROOT
HETATM    1  O   UNL     1      31.744 -21.082 -15.014  1.00  0.00    -0.776 OA
HETATM    2  H   UNL     1      32.117 -20.924 -15.892  1.00  0.00     0.167 HD
ENDROOT
BRANCH   1   3
HETATM    3  C   UNL     1      30.684 -20.378 -14.562  1.00  0.00     0.139 C 
HETATM    4  O   UNL     1      29.974 -20.846 -13.683  1.00  0.00    -0.650 OA
BRANCH   3   5
HETATM    5  C   UNL     1      30.399 -19.023 -15.157  1.00  0.00     0.110 C 
BRANCH   5   6
HETATM    6  C   UNL     1      30.386 -19.029 -16.693  1.00  0.00     0.010 C 
BRANCH   6   7
HETATM    7  C   UNL     1      30.533 -17.609 -17.249  1.00  0.00     0.001 C 
BRANCH   7   8
HETATM    8  C   UNL     1      30.155 -16.563 -16.193  1.00  0.00     0.000 C 
BRANCH   8   9
HETATM    9  C   UNL     1      31.207 -15.450 -16.120  1.00  0.00     0.000 C 
BRANCH   9  10
HETATM   10  C   UNL     1      31.262 -14.658 -17.432  1.00  0.00     0.000 C 
BRANCH  10  11
HETATM   11  C   UNL     1      31.419 -13.157 -17.162  1.00  0.00     0.000 C 
BRANCH  11  12
HETATM   12  C   UNL     1      31.710 -12.890 -15.680  1.00  0.00     0.000 C 
BRANCH  12  13
HETATM   13  C   UNL     1      31.139 -11.537 -15.242  1.00  0.00     0.000 C 
BRANCH  13  14
HETATM   14  C   UNL     1      29.647 -11.651 -14.908  1.00  0.00     0.000 C 
BRANCH  14  15
HETATM   15  C   UNL     1      29.378 -12.848 -13.988  1.00  0.00     0.000 C 
BRANCH  15  16
HETATM   16  C   UNL     1      28.180 -13.665 -14.484  1.00  0.00     0.000 C 
BRANCH  16  17
HETATM   17  C   UNL     1      27.645 -13.108 -15.809  1.00  0.00    -0.000 C 
BRANCH  17  18
HETATM   18  C   UNL     1      27.382 -14.237 -16.813  1.00  0.00    -0.005 C 
HETATM   19  C   UNL     1      27.822 -13.837 -18.219  1.00  0.00     0.005 C 
ENDBRANCH  17  18
ENDBRANCH  16  17
ENDBRANCH  15  16
ENDBRANCH  14  15
ENDBRANCH  13  14
ENDBRANCH  12  13
ENDBRANCH  11  12
ENDBRANCH  10  11
ENDBRANCH   9  10
ENDBRANCH   8   9
ENDBRANCH   7   8
ENDBRANCH   6   7
ENDBRANCH   5   6
ENDBRANCH   3   5
ENDBRANCH   1   3
TORSDOF 15
ENDMDL
MODEL 4
REMARK VINA RESULT:      -4.6     29.095     30.850
REMARK  15 active torsions:
REMARK  status: ('A' for Active; 'I' for Inactive)
REMARK    1  A    between atoms: O_1  and  C_18 
REMARK    2  A    between atoms: C_3  and  C_4 
REMARK    3  A    between atoms: C_3  and  C_5 
REMARK    4  A    between atoms: C_4  and  C_6 
REMARK    5  A    between atoms: C_5  and  C_7 
REMARK    6  A    between atoms: C_6  and  C_8 
REMARK    7  A    between atoms: C_7  and  C_9 
REMARK    8  A    between atoms: C_8  and  C_10 
REMARK    9  A    between atoms: C_9  and  C_11 
REMARK   10  A    between atoms: C_10  and  C_12 
REMARK   11  A    between atoms: C_11  and  C_13 
REMARK   12  A    between atoms: C_12  and  C_14 
REMARK   13  A    between atoms: C_13  and  C_15 
REMARK   14  A    between atoms: C_14  and  C_16 
REMARK   15  A    between atoms: C_16  and  C_18 
ROOT
HETATM    1  O   UNL     1      38.708   6.108 -10.121  1.00  0.00    -0.776 OA
HETATM    2  H   UNL     1      37.768   6.134  -9.897  1.00  0.00     0.167 HD
ENDROOT
BRANCH   1   3
HETATM    3  C   UNL     1      39.270   7.047 -10.912  1.00  0.00     0.139 C 
HETATM    4  O   UNL     1      39.515   6.788 -12.082  1.00  0.00    -0.650 OA
BRANCH   3   5
HETATM    5  C   UNL     1      39.583   8.401 -10.329  1.00  0.00     0.110 C 
BRANCH   5   6
HETATM    6  C   UNL     1      39.350   9.552 -11.319  1.00  0.00     0.010 C 
BRANCH   6   7
HETATM    7  C   UNL     1      40.662  10.280 -11.633  1.00  0.00     0.001 C 
BRANCH   7   8
HETATM    8  C   UNL     1      40.757  10.624 -13.125  1.00  0.00     0.000 C 
BRANCH   8   9
HETATM    9  C   UNL     1      41.825   9.771 -13.820  1.00  0.00     0.000 C 
BRANCH   9  10
HETATM   10  C   UNL     1      41.223   8.467 -14.356  1.00  0.00     0.000 C 
BRANCH  10  11
HETATM   11  C   UNL     1      40.254   8.742 -15.512  1.00  0.00     0.000 C 
BRANCH  11  12
HETATM   12  C   UNL     1      39.004   7.862 -15.405  1.00  0.00     0.000 C 
BRANCH  12  13
HETATM   13  C   UNL     1      37.906   8.561 -14.594  1.00  0.00     0.000 C 
BRANCH  13  14
HETATM   14  C   UNL     1      37.755  10.026 -15.022  1.00  0.00     0.000 C 
BRANCH  14  15
HETATM   15  C   UNL     1      36.434  10.248 -15.768  1.00  0.00     0.000 C 
BRANCH  15  16
HETATM   16  C   UNL     1      36.686  10.653 -17.225  1.00  0.00     0.000 C 
BRANCH  16  17
HETATM   17  C   UNL     1      38.158  11.025 -17.445  1.00  0.00    -0.000 C 
BRANCH  17  18
HETATM   18  C   UNL     1      38.704  10.375 -18.722  1.00  0.00    -0.005 C 
HETATM   19  C   UNL     1      38.161   8.959 -18.895  1.00  0.00     0.005 C 
ENDBRANCH  17  18
ENDBRANCH  16  17
ENDBRANCH  15  16
ENDBRANCH  14  15
ENDBRANCH  13  14
ENDBRANCH  12  13
ENDBRANCH  11  12
ENDBRANCH  10  11
ENDBRANCH   9  10
ENDBRANCH   8   9
ENDBRANCH   7   8
ENDBRANCH   6   7
ENDBRANCH   5   6
ENDBRANCH   3   5
ENDBRANCH   1   3
TORSDOF 15
ENDMDL
MODEL 5
REMARK VINA RESULT:      -4.6      4.315      6.823
REMARK  15 active torsions:
REMARK  status: ('A' for Active; 'I' for Inactive)
REMARK    1  A    between atoms: O_1  and  C_18 
REMARK    2  A    between atoms: C_3  and  C_4 
REMARK    3  A    between atoms: C_3  and  C_5 
REMARK    4  A    between atoms: C_4  and  C_6 
REMARK    5  A    between atoms: C_5  and  C_7 
REMARK    6  A    between atoms: C_6  and  C_8 
REMARK    7  A    between atoms: C_7  and  C_9 
REMARK    8  A    between atoms: C_8  and  C_10 
REMARK    9  A    between atoms: C_9  and  C_11 
REMARK   10  A    between atoms: C_10  and  C_12 
REMARK   11  A    between atoms: C_11  and  C_13 
REMARK   12  A    between atoms: C_12  and  C_14 
REMARK   13  A    between atoms: C_13  and  C_15 
REMARK   14  A    between atoms: C_14  and  C_16 
REMARK   15  A    between atoms: C_16  and  C_18 
ROOT
HETATM    1  O   UNL     1      32.248 -20.663  -9.458  1.00  0.00    -0.776 OA
HETATM    2  H   UNL     1      33.044 -20.683 -10.007  1.00  0.00     0.167 HD
ENDROOT
BRANCH   1   3
HETATM    3  C   UNL     1      31.015 -20.621 -10.007  1.00  0.00     0.139 C 
HETATM    4  O   UNL     1      30.862 -20.933 -11.179  1.00  0.00    -0.650 OA
BRANCH   3   5
HETATM    5  C   UNL     1      29.851 -20.189  -9.154  1.00  0.00     0.110 C 
BRANCH   5   6
HETATM    6  C   UNL     1      30.142 -18.924  -8.331  1.00  0.00     0.010 C 
BRANCH   6   7
HETATM    7  C   UNL     1      30.037 -17.667  -9.202  1.00  0.00     0.001 C 
BRANCH   7   8
HETATM    8  C   UNL     1      30.216 -16.398  -8.359  1.00  0.00     0.000 C 
BRANCH   8   9
HETATM    9  C   UNL     1      30.157 -16.719  -6.861  1.00  0.00     0.000 C 
BRANCH   9  10
HETATM   10  C   UNL     1      29.356 -15.655  -6.102  1.00  0.00     0.000 C 
BRANCH  10  11
HETATM   11  C   UNL     1      28.740 -14.636  -7.068  1.00  0.00     0.000 C 
BRANCH  11  12
HETATM   12  C   UNL     1      28.614 -13.258  -6.410  1.00  0.00     0.000 C 
BRANCH  12  13
HETATM   13  C   UNL     1      29.301 -12.179  -7.254  1.00  0.00     0.000 C 
BRANCH  13  14
HETATM   14  C   UNL     1      30.594 -12.712  -7.882  1.00  0.00     0.000 C 
BRANCH  14  15
HETATM   15  C   UNL     1      30.691 -12.318  -9.361  1.00  0.00     0.000 C 
BRANCH  15  16
HETATM   16  C   UNL     1      29.445 -11.545  -9.807  1.00  0.00     0.000 C 
BRANCH  16  17
HETATM   17  C   UNL     1      28.746 -12.253 -10.974  1.00  0.00    -0.000 C 
BRANCH  17  18
HETATM   18  C   UNL     1      27.795 -13.342 -10.466  1.00  0.00    -0.005 C 
HETATM   19  C   UNL     1      28.131 -14.698 -11.082  1.00  0.00     0.005 C 
ENDBRANCH  17  18
ENDBRANCH  16  17
ENDBRANCH  15  16
ENDBRANCH  14  15
ENDBRANCH  13  14
ENDBRANCH  12  13
ENDBRANCH  11  12
ENDBRANCH  10  11
ENDBRANCH   9  10
ENDBRANCH   8   9
ENDBRANCH   7   8
ENDBRANCH   6   7
ENDBRANCH   5   6
ENDBRANCH   3   5
ENDBRANCH   1   3
TORSDOF 15
ENDMDL
MODEL 6
REMARK VINA RESULT:      -4.5     27.578     28.603
REMARK  15 active torsions:
REMARK  status: ('A' for Active; 'I' for Inactive)
REMARK    1  A    between atoms: O_1  and  C_18 
REMARK    2  A    between atoms: C_3  and  C_4 
REMARK    3  A    between atoms: C_3  and  C_5 
REMARK    4  A    between atoms: C_4  and  C_6 
REMARK    5  A    between atoms: C_5  and  C_7 
REMARK    6  A    between atoms: C_6  and  C_8 
REMARK    7  A    between atoms: C_7  and  C_9 
REMARK    8  A    between atoms: C_8  and  C_10 
REMARK    9  A    between atoms: C_9  and  C_11 
REMARK   10  A    between atoms: C_10  and  C_12 
REMARK   11  A    between atoms: C_11  and  C_13 
REMARK   12  A    between atoms: C_12  and  C_14 
REMARK   13  A    between atoms: C_13  and  C_15 
REMARK   14  A    between atoms: C_14  and  C_16 
REMARK   15  A    between atoms: C_16  and  C_18 
ROOT
HETATM    1  O   UNL     1      39.445   9.334 -20.351  1.00  0.00    -0.776 OA
HETATM    2  H   UNL     1      38.913   9.447 -21.150  1.00  0.00     0.167 HD
ENDROOT
BRANCH   1   3
HETATM    3  C   UNL     1      39.777   8.108 -19.893  1.00  0.00     0.139 C 
HETATM    4  O   UNL     1      39.368   7.112 -20.473  1.00  0.00    -0.650 OA
BRANCH   3   5
HETATM    5  C   UNL     1      40.652   7.997 -18.672  1.00  0.00     0.110 C 
BRANCH   5   6
HETATM    6  C   UNL     1      39.910   8.325 -17.367  1.00  0.00     0.010 C 
BRANCH   6   7
HETATM    7  C   UNL     1      39.308   7.060 -16.744  1.00  0.00     0.001 C 
BRANCH   7   8
HETATM    8  C   UNL     1      39.320   7.141 -15.213  1.00  0.00     0.000 C 
BRANCH   8   9
HETATM    9  C   UNL     1      40.394   8.120 -14.722  1.00  0.00     0.000 C 
BRANCH   9  10
HETATM   10  C   UNL     1      40.392   8.217 -13.192  1.00  0.00     0.000 C 
BRANCH  10  11
HETATM   11  C   UNL     1      38.960   8.232 -12.644  1.00  0.00     0.000 C 
BRANCH  11  12
HETATM   12  C   UNL     1      38.876   7.498 -11.300  1.00  0.00     0.000 C 
BRANCH  12  13
HETATM   13  C   UNL     1      37.769   8.087 -10.419  1.00  0.00     0.000 C 
BRANCH  13  14
HETATM   14  C   UNL     1      38.312   8.470  -9.037  1.00  0.00     0.000 C 
BRANCH  14  15
HETATM   15  C   UNL     1      39.425   7.512  -8.597  1.00  0.00     0.000 C 
BRANCH  15  16
HETATM   16  C   UNL     1      39.834   7.774  -7.143  1.00  0.00     0.000 C 
BRANCH  16  17
HETATM   17  C   UNL     1      38.604   7.849  -6.230  1.00  0.00    -0.000 C 
BRANCH  17  18
HETATM   18  C   UNL     1      38.876   7.170  -4.883  1.00  0.00    -0.005 C 
HETATM   19  C   UNL     1      40.168   7.687  -4.257  1.00  0.00     0.005 C 
ENDBRANCH  17  18
ENDBRANCH  16  17
ENDBRANCH  15  16
ENDBRANCH  14  15
ENDBRANCH  13  14
ENDBRANCH  12  13
ENDBRANCH  11  12
ENDBRANCH  10  11
ENDBRANCH   9  10
ENDBRANCH   8   9
ENDBRANCH   7   8
ENDBRANCH   6   7
ENDBRANCH   5   6
ENDBRANCH   3   5
ENDBRANCH   1   3
TORSDOF 15
ENDMDL
MODEL 7
REMARK VINA RESULT:      -4.5     27.868     29.059
REMARK  15 active torsions:
REMARK  status: ('A' for Active; 'I' for Inactive)
REMARK    1  A    between atoms: O_1  and  C_18 
REMARK    2  A    between atoms: C_3  and  C_4 
REMARK    3  A    between atoms: C_3  and  C_5 
REMARK    4  A    between atoms: C_4  and  C_6 
REMARK    5  A    between atoms: C_5  and  C_7 
REMARK    6  A    between atoms: C_6  and  C_8 
REMARK    7  A    between atoms: C_7  and  C_9 
REMARK    8  A    between atoms: C_8  and  C_10 
REMARK    9  A    between atoms: C_9  and  C_11 
REMARK   10  A    between atoms: C_10  and  C_12 
REMARK   11  A    between atoms: C_11  and  C_13 
REMARK   12  A    between atoms: C_12  and  C_14 
REMARK   13  A    between atoms: C_13  and  C_15 
REMARK   14  A    between atoms: C_14  and  C_16 
REMARK   15  A    between atoms: C_16  and  C_18 
ROOT
HETATM    1  O   UNL     1      37.744  10.629 -15.900  1.00  0.00    -0.776 OA
HETATM    2  H   UNL     1      38.255  11.342 -16.310  1.00  0.00     0.167 HD
ENDROOT
BRANCH   1   3
HETATM    3  C   UNL     1      37.870   9.349 -16.308  1.00  0.00     0.139 C 
HETATM    4  O   UNL     1      38.145   9.107 -17.474  1.00  0.00    -0.650 OA
BRANCH   3   5
HETATM    5  C   UNL     1      37.667   8.241 -15.307  1.00  0.00     0.110 C 
BRANCH   5   6
HETATM    6  C   UNL     1      38.619   7.054 -15.520  1.00  0.00     0.010 C 
BRANCH   6   7
HETATM    7  C   UNL     1      40.029   7.384 -15.019  1.00  0.00     0.001 C 
BRANCH   7   8
HETATM    8  C   UNL     1      40.006   7.797 -13.542  1.00  0.00     0.000 C 
BRANCH   8   9
HETATM    9  C   UNL     1      40.813   9.082 -13.317  1.00  0.00     0.000 C 
BRANCH   9  10
HETATM   10  C   UNL     1      40.120   9.996 -12.301  1.00  0.00     0.000 C 
BRANCH  10  11
HETATM   11  C   UNL     1      38.657   9.584 -12.099  1.00  0.00     0.000 C 
BRANCH  11  12
HETATM   12  C   UNL     1      38.041  10.308 -10.896  1.00  0.00     0.000 C 
BRANCH  12  13
HETATM   13  C   UNL     1      37.750   9.329  -9.754  1.00  0.00     0.000 C 
BRANCH  13  14
HETATM   14  C   UNL     1      38.168   7.902 -10.132  1.00  0.00     0.000 C 
BRANCH  14  15
HETATM   15  C   UNL     1      39.181   7.340  -9.127  1.00  0.00     0.000 C 
BRANCH  15  16
HETATM   16  C   UNL     1      39.992   8.466  -8.476  1.00  0.00     0.000 C 
BRANCH  16  17
HETATM   17  C   UNL     1      39.993   8.332  -6.949  1.00  0.00    -0.000 C 
BRANCH  17  18
HETATM   18  C   UNL     1      39.409   6.983  -6.515  1.00  0.00    -0.005 C 
HETATM   19  C   UNL     1      38.330   7.166  -5.451  1.00  0.00     0.005 C 
ENDBRANCH  17  18
ENDBRANCH  16  17
ENDBRANCH  15  16
ENDBRANCH  14  15
ENDBRANCH  13  14
ENDBRANCH  12  13
ENDBRANCH  11  12
ENDBRANCH  10  11
ENDBRANCH   9  10
ENDBRANCH   8   9
ENDBRANCH   7   8
ENDBRANCH   6   7
ENDBRANCH   5   6
ENDBRANCH   3   5
ENDBRANCH   1   3
TORSDOF 15
ENDMDL
MODEL 8
REMARK VINA RESULT:      -4.5      3.647      8.304
REMARK  15 active torsions:
REMARK  status: ('A' for Active; 'I' for Inactive)
REMARK    1  A    between atoms: O_1  and  C_18 
REMARK    2  A    between atoms: C_3  and  C_4 
REMARK    3  A    between atoms: C_3  and  C_5 
REMARK    4  A    between atoms: C_4  and  C_6 
REMARK    5  A    between atoms: C_5  and  C_7 
REMARK    6  A    between atoms: C_6  and  C_8 
REMARK    7  A    between atoms: C_7  and  C_9 
REMARK    8  A    between atoms: C_8  and  C_10 
REMARK    9  A    between atoms: C_9  and  C_11 
REMARK   10  A    between atoms: C_10  and  C_12 
REMARK   11  A    between atoms: C_11  and  C_13 
REMARK   12  A    between atoms: C_12  and  C_14 
REMARK   13  A    between atoms: C_13  and  C_15 
REMARK   14  A    between atoms: C_14  and  C_16 
REMARK   15  A    between atoms: C_16  and  C_18 
ROOT
HETATM    1  O   UNL     1      31.771 -21.069  -5.120  1.00  0.00    -0.776 OA
HETATM    2  H   UNL     1      32.657 -21.405  -5.314  1.00  0.00     0.167 HD
ENDROOT
BRANCH   1   3
HETATM    3  C   UNL     1      31.077 -20.349  -6.026  1.00  0.00     0.139 C 
HETATM    4  O   UNL     1      30.826 -20.830  -7.122  1.00  0.00    -0.650 OA
BRANCH   3   5
HETATM    5  C   UNL     1      30.624 -18.958  -5.662  1.00  0.00     0.110 C 
BRANCH   5   6
HETATM    6  C   UNL     1      30.626 -17.991  -6.856  1.00  0.00     0.010 C 
BRANCH   6   7
HETATM    7  C   UNL     1      31.178 -16.620  -6.451  1.00  0.00     0.001 C 
BRANCH   7   8
HETATM    8  C   UNL     1      30.124 -15.805  -5.691  1.00  0.00     0.000 C 
BRANCH   8   9
HETATM    9  C   UNL     1      29.823 -14.485  -6.411  1.00  0.00     0.000 C 
BRANCH   9  10
HETATM   10  C   UNL     1      28.490 -14.560  -7.164  1.00  0.00     0.000 C 
BRANCH  10  11
HETATM   11  C   UNL     1      28.688 -14.306  -8.663  1.00  0.00     0.000 C 
BRANCH  11  12
HETATM   12  C   UNL     1      29.206 -15.563  -9.372  1.00  0.00     0.000 C 
BRANCH  12  13
HETATM   13  C   UNL     1      30.514 -15.275 -10.117  1.00  0.00     0.000 C 
BRANCH  13  14
HETATM   14  C   UNL     1      31.122 -16.567 -10.678  1.00  0.00     0.000 C 
BRANCH  14  15
HETATM   15  C   UNL     1      31.326 -16.465 -12.195  1.00  0.00     0.000 C 
BRANCH  15  16
HETATM   16  C   UNL     1      30.651 -17.636 -12.920  1.00  0.00     0.000 C 
BRANCH  16  17
HETATM   17  C   UNL     1      30.311 -18.766 -11.941  1.00  0.00    -0.000 C 
BRANCH  17  18
HETATM   18  C   UNL     1      30.829 -20.114 -12.457  1.00  0.00    -0.005 C 
HETATM   19  C   UNL     1      30.239 -20.444 -13.825  1.00  0.00     0.005 C 
ENDBRANCH  17  18
ENDBRANCH  16  17
ENDBRANCH  15  16
ENDBRANCH  14  15
ENDBRANCH  13  14
ENDBRANCH  12  13
ENDBRANCH  11  12
ENDBRANCH  10  11
ENDBRANCH   9  10
ENDBRANCH   8   9
ENDBRANCH   7   8
ENDBRANCH   6   7
ENDBRANCH   5   6
ENDBRANCH   3   5
ENDBRANCH   1   3
TORSDOF 15
ENDMDL
MODEL 9
REMARK VINA RESULT:      -4.5     28.754     31.003
REMARK  15 active torsions:
REMARK  status: ('A' for Active; 'I' for Inactive)
REMARK    1  A    between atoms: O_1  and  C_18 
REMARK    2  A    between atoms: C_3  and  C_4 
REMARK    3  A    between atoms: C_3  and  C_5 
REMARK    4  A    between atoms: C_4  and  C_6 
REMARK    5  A    between atoms: C_5  and  C_7 
REMARK    6  A    between atoms: C_6  and  C_8 
REMARK    7  A    between atoms: C_7  and  C_9 
REMARK    8  A    between atoms: C_8  and  C_10 
REMARK    9  A    between atoms: C_9  and  C_11 
REMARK   10  A    between atoms: C_10  and  C_12 
REMARK   11  A    between atoms: C_11  and  C_13 
REMARK   12  A    between atoms: C_12  and  C_14 
REMARK   13  A    between atoms: C_13  and  C_15 
REMARK   14  A    between atoms: C_14  and  C_16 
REMARK   15  A    between atoms: C_16  and  C_18 
ROOT
HETATM    1  O   UNL     1      43.062  12.042  -7.253  1.00  0.00    -0.776 OA
HETATM    2  H   UNL     1      43.994  12.299  -7.298  1.00  0.00     0.167 HD
ENDROOT
BRANCH   1   3
HETATM    3  C   UNL     1      42.501  11.260  -8.199  1.00  0.00     0.139 C 
HETATM    4  O   UNL     1      42.975  11.233  -9.325  1.00  0.00    -0.650 OA
BRANCH   3   5
HETATM    5  C   UNL     1      41.295  10.431  -7.839  1.00  0.00     0.110 C 
BRANCH   5   6
HETATM    6  C   UNL     1      41.109   9.209  -8.752  1.00  0.00     0.010 C 
BRANCH   6   7
HETATM    7  C   UNL     1      39.625   8.852  -8.897  1.00  0.00     0.001 C 
BRANCH   7   8
HETATM    8  C   UNL     1      39.444   7.353  -9.166  1.00  0.00     0.000 C 
BRANCH   8   9
HETATM    9  C   UNL     1      38.492   7.117 -10.346  1.00  0.00     0.000 C 
BRANCH   9  10
HETATM   10  C   UNL     1      39.221   7.289 -11.683  1.00  0.00     0.000 C 
BRANCH  10  11
HETATM   11  C   UNL     1      38.682   8.502 -12.451  1.00  0.00     0.000 C 
BRANCH  11  12
HETATM   12  C   UNL     1      39.111   8.459 -13.922  1.00  0.00     0.000 C 
BRANCH  12  13
HETATM   13  C   UNL     1      39.107   7.022 -14.455  1.00  0.00     0.000 C 
BRANCH  13  14
HETATM   14  C   UNL     1      39.210   7.002 -15.985  1.00  0.00     0.000 C 
BRANCH  14  15
HETATM   15  C   UNL     1      39.775   8.324 -16.516  1.00  0.00     0.000 C 
BRANCH  15  16
HETATM   16  C   UNL     1      40.021   8.250 -18.027  1.00  0.00     0.000 C 
BRANCH  16  17
HETATM   17  C   UNL     1      39.027   7.295 -18.700  1.00  0.00    -0.000 C 
BRANCH  17  18
HETATM   18  C   UNL     1      38.796   7.684 -20.165  1.00  0.00    -0.005 C 
HETATM   19  C   UNL     1      37.508   8.487 -20.325  1.00  0.00     0.005 C 
ENDBRANCH  17  18
ENDBRANCH  16  17
ENDBRANCH  15  16
ENDBRANCH  14  15
ENDBRANCH  13  14
ENDBRANCH  12  13
ENDBRANCH  11  12
ENDBRANCH  10  11
ENDBRANCH   9  10
ENDBRANCH   8   9
ENDBRANCH   7   8
ENDBRANCH   6   7
ENDBRANCH   5   6
ENDBRANCH   3   5
ENDBRANCH   1   3
TORSDOF 15
ENDMDL
MODEL 10
REMARK VINA RESULT:      -4.5      3.953      6.262
REMARK  15 active torsions:
REMARK  status: ('A' for Active; 'I' for Inactive)
REMARK    1  A    between atoms: O_1  and  C_18 
REMARK    2  A    between atoms: C_3  and  C_4 
REMARK    3  A    between atoms: C_3  and  C_5 
REMARK    4  A    between atoms: C_4  and  C_6 
REMARK    5  A    between atoms: C_5  and  C_7 
REMARK    6  A    between atoms: C_6  and  C_8 
REMARK    7  A    between atoms: C_7  and  C_9 
REMARK    8  A    between atoms: C_8  and  C_10 
REMARK    9  A    between atoms: C_9  and  C_11 
REMARK   10  A    between atoms: C_10  and  C_12 
REMARK   11  A    between atoms: C_11  and  C_13 
REMARK   12  A    between atoms: C_12  and  C_14 
REMARK   13  A    between atoms: C_13  and  C_15 
REMARK   14  A    between atoms: C_14  and  C_16 
REMARK   15  A    between atoms: C_16  and  C_18 
ROOT
HETATM    1  O   UNL     1      29.297 -18.680 -14.065  1.00  0.00    -0.776 OA
HETATM    2  H   UNL     1      29.179 -18.751 -15.023  1.00  0.00     0.167 HD
ENDROOT
BRANCH   1   3
HETATM    3  C   UNL     1      29.927 -19.643 -13.360  1.00  0.00     0.139 C 
HETATM    4  O   UNL     1      29.866 -20.806 -13.731  1.00  0.00    -0.650 OA
BRANCH   3   5
HETATM    5  C   UNL     1      30.696 -19.257 -12.123  1.00  0.00     0.110 C 
BRANCH   5   6
HETATM    6  C   UNL     1      31.029 -20.456 -11.221  1.00  0.00     0.010 C 
BRANCH   6   7
HETATM    7  C   UNL     1      31.433 -19.992  -9.817  1.00  0.00     0.001 C 
BRANCH   7   8
HETATM    8  C   UNL     1      30.233 -20.021  -8.862  1.00  0.00     0.000 C 
BRANCH   8   9
HETATM    9  C   UNL     1      29.903 -18.613  -8.350  1.00  0.00     0.000 C 
BRANCH   9  10
HETATM   10  C   UNL     1      30.922 -17.589  -8.862  1.00  0.00     0.000 C 
BRANCH  10  11
HETATM   11  C   UNL     1      30.231 -16.477  -9.661  1.00  0.00     0.000 C 
BRANCH  11  12
HETATM   12  C   UNL     1      31.235 -15.727 -10.543  1.00  0.00     0.000 C 
BRANCH  12  13
HETATM   13  C   UNL     1      31.865 -14.553  -9.786  1.00  0.00     0.000 C 
BRANCH  13  14
HETATM   14  C   UNL     1      31.427 -13.212 -10.387  1.00  0.00     0.000 C 
BRANCH  14  15
HETATM   15  C   UNL     1      30.939 -12.252  -9.295  1.00  0.00     0.000 C 
BRANCH  15  16
HETATM   16  C   UNL     1      29.410 -12.278  -9.185  1.00  0.00     0.000 C 
BRANCH  16  17
HETATM   17  C   UNL     1      28.758 -12.291 -10.573  1.00  0.00    -0.000 C 
BRANCH  17  18
HETATM   18  C   UNL     1      27.583 -13.274 -10.619  1.00  0.00    -0.005 C 
HETATM   19  C   UNL     1      27.713 -14.232 -11.800  1.00  0.00     0.005 C 
ENDBRANCH  17  18
ENDBRANCH  16  17
ENDBRANCH  15  16
ENDBRANCH  14  15
ENDBRANCH  13  14
ENDBRANCH  12  13
ENDBRANCH  11  12
ENDBRANCH  10  11
ENDBRANCH   9  10
ENDBRANCH   8   9
ENDBRANCH   7   8
ENDBRANCH   6   7
ENDBRANCH   5   6
ENDBRANCH   3   5
ENDBRANCH   1   3
TORSDOF 15
ENDMDL
MODEL 11
REMARK VINA RESULT:      -4.4      4.202      8.121
REMARK  15 active torsions:
REMARK  status: ('A' for Active; 'I' for Inactive)
REMARK    1  A    between atoms: O_1  and  C_18 
REMARK    2  A    between atoms: C_3  and  C_4 
REMARK    3  A    between atoms: C_3  and  C_5 
REMARK    4  A    between atoms: C_4  and  C_6 
REMARK    5  A    between atoms: C_5  and  C_7 
REMARK    6  A    between atoms: C_6  and  C_8 
REMARK    7  A    between atoms: C_7  and  C_9 
REMARK    8  A    between atoms: C_8  and  C_10 
REMARK    9  A    between atoms: C_9  and  C_11 
REMARK   10  A    between atoms: C_10  and  C_12 
REMARK   11  A    between atoms: C_11  and  C_13 
REMARK   12  A    between atoms: C_12  and  C_14 
REMARK   13  A    between atoms: C_13  and  C_15 
REMARK   14  A    between atoms: C_14  and  C_16 
REMARK   15  A    between atoms: C_16  and  C_18 
ROOT
HETATM    1  O   UNL     1      31.793 -21.063  -4.947  1.00  0.00    -0.776 OA
HETATM    2  H   UNL     1      31.860 -22.011  -4.769  1.00  0.00     0.167 HD
ENDROOT
BRANCH   1   3
HETATM    3  C   UNL     1      30.726 -20.343  -4.537  1.00  0.00     0.139 C 
HETATM    4  O   UNL     1      29.898 -20.854  -3.797  1.00  0.00    -0.650 OA
BRANCH   3   5
HETATM    5  C   UNL     1      30.584 -18.918  -5.004  1.00  0.00     0.110 C 
BRANCH   5   6
HETATM    6  C   UNL     1      30.371 -18.799  -6.521  1.00  0.00     0.010 C 
BRANCH   6   7
HETATM    7  C   UNL     1      30.351 -17.330  -6.959  1.00  0.00     0.001 C 
BRANCH   7   8
HETATM    8  C   UNL     1      31.395 -16.512  -6.190  1.00  0.00     0.000 C 
BRANCH   8   9
HETATM    9  C   UNL     1      31.979 -15.399  -7.069  1.00  0.00     0.000 C 
BRANCH   9  10
HETATM   10  C   UNL     1      32.693 -15.983  -8.294  1.00  0.00     0.000 C 
BRANCH  10  11
HETATM   11  C   UNL     1      32.779 -14.951  -9.424  1.00  0.00     0.000 C 
BRANCH  11  12
HETATM   12  C   UNL     1      32.081 -15.461 -10.691  1.00  0.00     0.000 C 
BRANCH  12  13
HETATM   13  C   UNL     1      30.557 -15.411 -10.538  1.00  0.00     0.000 C 
BRANCH  13  14
HETATM   14  C   UNL     1      29.895 -16.611 -11.225  1.00  0.00     0.000 C 
BRANCH  14  15
HETATM   15  C   UNL     1      30.946 -17.618 -11.708  1.00  0.00     0.000 C 
BRANCH  15  16
HETATM   16  C   UNL     1      30.289 -18.783 -12.457  1.00  0.00     0.000 C 
BRANCH  16  17
HETATM   17  C   UNL     1      30.813 -20.130 -11.947  1.00  0.00    -0.000 C 
BRANCH  17  18
HETATM   18  C   UNL     1      31.292 -20.020 -10.495  1.00  0.00    -0.005 C 
HETATM   19  C   UNL     1      30.274 -20.624  -9.531  1.00  0.00     0.005 C 
ENDBRANCH  17  18
ENDBRANCH  16  17
ENDBRANCH  15  16
ENDBRANCH  14  15
ENDBRANCH  13  14
ENDBRANCH  12  13
ENDBRANCH  11  12
ENDBRANCH  10  11
ENDBRANCH   9  10
ENDBRANCH   8   9
ENDBRANCH   7   8
ENDBRANCH   6   7
ENDBRANCH   5   6
ENDBRANCH   3   5
ENDBRANCH   1   3
TORSDOF 15
ENDMDL
MODEL 12
REMARK VINA RESULT:      -4.4      7.227     10.094
REMARK  15 active torsions:
REMARK  status: ('A' for Active; 'I' for Inactive)
REMARK    1  A    between atoms: O_1  and  C_18 
REMARK    2  A    between atoms: C_3  and  C_4 
REMARK    3  A    between atoms: C_3  and  C_5 
REMARK    4  A    between atoms: C_4  and  C_6 
REMARK    5  A    between atoms: C_5  and  C_7 
REMARK    6  A    between atoms: C_6  and  C_8 
REMARK    7  A    between atoms: C_7  and  C_9 
REMARK    8  A    between atoms: C_8  and  C_10 
REMARK    9  A    between atoms: C_9  and  C_11 
REMARK   10  A    between atoms: C_10  and  C_12 
REMARK   11  A    between atoms: C_11  and  C_13 
REMARK   12  A    between atoms: C_12  and  C_14 
REMARK   13  A    between atoms: C_13  and  C_15 
REMARK   14  A    between atoms: C_14  and  C_16 
REMARK   15  A    between atoms: C_16  and  C_18 
ROOT
HETATM    1  O   UNL     1      29.874 -21.158 -13.847  1.00  0.00    -0.776 OA
HETATM    2  H   UNL     1      30.223 -21.986 -14.204  1.00  0.00     0.167 HD
ENDROOT
BRANCH   1   3
HETATM    3  C   UNL     1      30.617 -20.367 -13.044  1.00  0.00     0.139 C 
HETATM    4  O   UNL     1      30.921 -20.754 -11.924  1.00  0.00    -0.650 OA
BRANCH   3   5
HETATM    5  C   UNL     1      31.058 -19.019 -13.551  1.00  0.00     0.110 C 
BRANCH   5   6
HETATM    6  C   UNL     1      29.895 -18.161 -14.072  1.00  0.00     0.010 C 
BRANCH   6   7
HETATM    7  C   UNL     1      30.120 -16.679 -13.753  1.00  0.00     0.001 C 
BRANCH   7   8
HETATM    8  C   UNL     1      29.454 -15.782 -14.805  1.00  0.00     0.000 C 
BRANCH   8   9
HETATM    9  C   UNL     1      30.062 -16.017 -16.193  1.00  0.00     0.000 C 
BRANCH   9  10
HETATM   10  C   UNL     1      31.398 -15.279 -16.340  1.00  0.00     0.000 C 
BRANCH  10  11
HETATM   11  C   UNL     1      31.343 -14.267 -17.490  1.00  0.00     0.000 C 
BRANCH  11  12
HETATM   12  C   UNL     1      29.921 -14.143 -18.048  1.00  0.00     0.000 C 
BRANCH  12  13
HETATM   13  C   UNL     1      29.341 -12.751 -17.773  1.00  0.00     0.000 C 
BRANCH  13  14
HETATM   14  C   UNL     1      28.507 -12.747 -16.485  1.00  0.00     0.000 C 
BRANCH  14  15
HETATM   15  C   UNL     1      28.933 -11.604 -15.557  1.00  0.00     0.000 C 
BRANCH  15  16
HETATM   16  C   UNL     1      29.472 -12.146 -14.228  1.00  0.00     0.000 C 
BRANCH  16  17
HETATM   17  C   UNL     1      30.992 -12.336 -14.287  1.00  0.00    -0.000 C 
BRANCH  17  18
HETATM   18  C   UNL     1      31.643 -11.286 -15.194  1.00  0.00    -0.005 C 
HETATM   19  C   UNL     1      33.006 -10.859 -14.655  1.00  0.00     0.005 C 
ENDBRANCH  17  18
ENDBRANCH  16  17
ENDBRANCH  15  16
ENDBRANCH  14  15
ENDBRANCH  13  14
ENDBRANCH  12  13
ENDBRANCH  11  12
ENDBRANCH  10  11
ENDBRANCH   9  10
ENDBRANCH   8   9
ENDBRANCH   7   8
ENDBRANCH   6   7
ENDBRANCH   5   6
ENDBRANCH   3   5
ENDBRANCH   1   3
TORSDOF 15
ENDMDL
MODEL 13
REMARK VINA RESULT:      -4.4      4.481      6.156
REMARK  15 active torsions:
REMARK  status: ('A' for Active; 'I' for Inactive)
REMARK    1  A    between atoms: O_1  and  C_18 
REMARK    2  A    between atoms: C_3  and  C_4 
REMARK    3  A    between atoms: C_3  and  C_5 
REMARK    4  A    between atoms: C_4  and  C_6 
REMARK    5  A    between atoms: C_5  and  C_7 
REMARK    6  A    between atoms: C_6  and  C_8 
REMARK    7  A    between atoms: C_7  and  C_9 
REMARK    8  A    between atoms: C_8  and  C_10 
REMARK    9  A    between atoms: C_9  and  C_11 
REMARK   10  A    between atoms: C_10  and  C_12 
REMARK   11  A    between atoms: C_11  and  C_13 
REMARK   12  A    between atoms: C_12  and  C_14 
REMARK   13  A    between atoms: C_13  and  C_15 
REMARK   14  A    between atoms: C_14  and  C_16 
REMARK   15  A    between atoms: C_16  and  C_18 
ROOT
HETATM    1  O   UNL     1      31.672 -21.105  -5.250  1.00  0.00    -0.776 OA
HETATM    2  H   UNL     1      31.267 -21.901  -4.879  1.00  0.00     0.167 HD
ENDROOT
BRANCH   1   3
HETATM    3  C   UNL     1      31.031 -20.353  -6.170  1.00  0.00     0.139 C 
HETATM    4  O   UNL     1      30.775 -20.825  -7.269  1.00  0.00    -0.650 OA
BRANCH   3   5
HETATM    5  C   UNL     1      30.643 -18.940  -5.817  1.00  0.00     0.110 C 
BRANCH   5   6
HETATM    6  C   UNL     1      30.281 -18.089  -7.044  1.00  0.00     0.010 C 
BRANCH   6   7
HETATM    7  C   UNL     1      30.014 -16.634  -6.644  1.00  0.00     0.001 C 
BRANCH   7   8
HETATM    8  C   UNL     1      31.310 -15.935  -6.215  1.00  0.00     0.000 C 
BRANCH   8   9
HETATM    9  C   UNL     1      31.491 -14.607  -6.961  1.00  0.00     0.000 C 
BRANCH   9  10
HETATM   10  C   UNL     1      30.321 -14.349  -7.917  1.00  0.00     0.000 C 
BRANCH  10  11
HETATM   11  C   UNL     1      29.585 -13.055  -7.549  1.00  0.00     0.000 C 
BRANCH  11  12
HETATM   12  C   UNL     1      30.247 -12.366  -6.351  1.00  0.00     0.000 C 
BRANCH  12  13
HETATM   13  C   UNL     1      29.254 -12.197  -5.195  1.00  0.00     0.000 C 
BRANCH  13  14
HETATM   14  C   UNL     1      28.250 -13.355  -5.159  1.00  0.00     0.000 C 
BRANCH  14  15
HETATM   15  C   UNL     1      28.186 -13.987  -3.764  1.00  0.00     0.000 C 
BRANCH  15  16
HETATM   16  C   UNL     1      29.577 -14.432  -3.298  1.00  0.00     0.000 C 
BRANCH  16  17
HETATM   17  C   UNL     1      29.486 -15.668  -2.395  1.00  0.00    -0.000 C 
BRANCH  17  18
HETATM   18  C   UNL     1      30.469 -16.754  -2.848  1.00  0.00    -0.005 C 
HETATM   19  C   UNL     1      30.296 -18.030  -2.029  1.00  0.00     0.005 C 
ENDBRANCH  17  18
ENDBRANCH  16  17
ENDBRANCH  15  16
ENDBRANCH  14  15
ENDBRANCH  13  14
ENDBRANCH  12  13
ENDBRANCH  11  12
ENDBRANCH  10  11
ENDBRANCH   9  10
ENDBRANCH   8   9
ENDBRANCH   7   8
ENDBRANCH   6   7
ENDBRANCH   5   6
ENDBRANCH   3   5
ENDBRANCH   1   3
TORSDOF 15
ENDMDL
MODEL 14
REMARK VINA RESULT:      -4.4      4.698      6.590
REMARK  15 active torsions:
REMARK  status: ('A' for Active; 'I' for Inactive)
REMARK    1  A    between atoms: O_1  and  C_18 
REMARK    2  A    between atoms: C_3  and  C_4 
REMARK    3  A    between atoms: C_3  and  C_5 
REMARK    4  A    between atoms: C_4  and  C_6 
REMARK    5  A    between atoms: C_5  and  C_7 
REMARK    6  A    between atoms: C_6  and  C_8 
REMARK    7  A    between atoms: C_7  and  C_9 
REMARK    8  A    between atoms: C_8  and  C_10 
REMARK    9  A    between atoms: C_9  and  C_11 
REMARK   10  A    between atoms: C_10  and  C_12 
REMARK   11  A    between atoms: C_11  and  C_13 
REMARK   12  A    between atoms: C_12  and  C_14 
REMARK   13  A    between atoms: C_13  and  C_15 
REMARK   14  A    between atoms: C_14  and  C_16 
REMARK   15  A    between atoms: C_16  and  C_18 
ROOT
HETATM    1  O   UNL     1      32.088 -21.051 -14.731  1.00  0.00    -0.776 OA
HETATM    2  H   UNL     1      32.621 -20.570 -14.082  1.00  0.00     0.167 HD
ENDROOT
BRANCH   1   3
HETATM    3  C   UNL     1      31.042 -20.467 -15.354  1.00  0.00     0.139 C 
HETATM    4  O   UNL     1      30.770 -20.778 -16.504  1.00  0.00    -0.650 OA
BRANCH   3   5
HETATM    5  C   UNL     1      30.230 -19.439 -14.610  1.00  0.00     0.110 C 
BRANCH   5   6
HETATM    6  C   UNL     1      30.595 -19.345 -13.120  1.00  0.00     0.010 C 
BRANCH   6   7
HETATM    7  C   UNL     1      30.011 -18.076 -12.490  1.00  0.00     0.001 C 
BRANCH   7   8
HETATM    8  C   UNL     1      30.956 -17.506 -11.425  1.00  0.00     0.000 C 
BRANCH   8   9
HETATM    9  C   UNL     1      30.750 -15.995 -11.259  1.00  0.00     0.000 C 
BRANCH   9  10
HETATM   10  C   UNL     1      31.218 -15.525  -9.877  1.00  0.00     0.000 C 
BRANCH  10  11
HETATM   11  C   UNL     1      30.022 -15.228  -8.963  1.00  0.00     0.000 C 
BRANCH  11  12
HETATM   12  C   UNL     1      28.719 -15.153  -9.767  1.00  0.00     0.000 C 
BRANCH  12  13
HETATM   13  C   UNL     1      28.134 -13.737  -9.736  1.00  0.00     0.000 C 
BRANCH  13  14
HETATM   14  C   UNL     1      27.983 -13.173 -11.154  1.00  0.00     0.000 C 
BRANCH  14  15
HETATM   15  C   UNL     1      29.064 -12.126 -11.448  1.00  0.00     0.000 C 
BRANCH  15  16
HETATM   16  C   UNL     1      29.717 -11.631 -10.153  1.00  0.00     0.000 C 
BRANCH  16  17
HETATM   17  C   UNL     1      31.245 -11.729 -10.235  1.00  0.00    -0.000 C 
BRANCH  17  18
HETATM   18  C   UNL     1      31.697 -12.110 -11.650  1.00  0.00    -0.005 C 
HETATM   19  C   UNL     1      33.019 -12.871 -11.620  1.00  0.00     0.005 C 
ENDBRANCH  17  18
ENDBRANCH  16  17
ENDBRANCH  15  16
ENDBRANCH  14  15
ENDBRANCH  13  14
ENDBRANCH  12  13
ENDBRANCH  11  12
ENDBRANCH  10  11
ENDBRANCH   9  10
ENDBRANCH   8   9
ENDBRANCH   7   8
ENDBRANCH   6   7
ENDBRANCH   5   6
ENDBRANCH   3   5
ENDBRANCH   1   3
TORSDOF 15
ENDMDL
MODEL 15
REMARK VINA RESULT:      -4.4     29.087     30.995
REMARK  15 active torsions:
REMARK  status: ('A' for Active; 'I' for Inactive)
REMARK    1  A    between atoms: O_1  and  C_18 
REMARK    2  A    between atoms: C_3  and  C_4 
REMARK    3  A    between atoms: C_3  and  C_5 
REMARK    4  A    between atoms: C_4  and  C_6 
REMARK    5  A    between atoms: C_5  and  C_7 
REMARK    6  A    between atoms: C_6  and  C_8 
REMARK    7  A    between atoms: C_7  and  C_9 
REMARK    8  A    between atoms: C_8  and  C_10 
REMARK    9  A    between atoms: C_9  and  C_11 
REMARK   10  A    between atoms: C_10  and  C_12 
REMARK   11  A    between atoms: C_11  and  C_13 
REMARK   12  A    between atoms: C_12  and  C_14 
REMARK   13  A    between atoms: C_13  and  C_15 
REMARK   14  A    between atoms: C_14  and  C_16 
REMARK   15  A    between atoms: C_16  and  C_18 
ROOT
HETATM    1  O   UNL     1      39.491   6.730  -7.651  1.00  0.00    -0.776 OA
HETATM    2  H   UNL     1      40.249   6.317  -7.214  1.00  0.00     0.167 HD
ENDROOT
BRANCH   1   3
HETATM    3  C   UNL     1      39.639   7.456  -8.780  1.00  0.00     0.139 C 
HETATM    4  O   UNL     1      40.428   8.390  -8.802  1.00  0.00    -0.650 OA
BRANCH   3   5
HETATM    5  C   UNL     1      38.823   7.093  -9.993  1.00  0.00     0.110 C 
BRANCH   5   6
HETATM    6  C   UNL     1      39.051   8.043 -11.180  1.00  0.00     0.010 C 
BRANCH   6   7
HETATM    7  C   UNL     1      39.306   7.257 -12.471  1.00  0.00     0.001 C 
BRANCH   7   8
HETATM    8  C   UNL     1      40.329   7.977 -13.359  1.00  0.00     0.000 C 
BRANCH   8   9
HETATM    9  C   UNL     1      39.984   9.464 -13.502  1.00  0.00     0.000 C 
BRANCH   9  10
HETATM   10  C   UNL     1      39.687   9.822 -14.962  1.00  0.00     0.000 C 
BRANCH  10  11
HETATM   11  C   UNL     1      38.231   9.501 -15.322  1.00  0.00     0.000 C 
BRANCH  11  12
HETATM   12  C   UNL     1      38.153   8.625 -16.577  1.00  0.00     0.000 C 
BRANCH  12  13
HETATM   13  C   UNL     1      39.491   7.929 -16.847  1.00  0.00     0.000 C 
BRANCH  13  14
HETATM   14  C   UNL     1      39.476   7.214 -18.204  1.00  0.00     0.000 C 
BRANCH  14  15
HETATM   15  C   UNL     1      40.211   8.037 -19.269  1.00  0.00     0.000 C 
BRANCH  15  16
HETATM   16  C   UNL     1      41.018   9.171 -18.627  1.00  0.00     0.000 C 
BRANCH  16  17
HETATM   17  C   UNL     1      40.582  10.535 -19.177  1.00  0.00    -0.000 C 
BRANCH  17  18
HETATM   18  C   UNL     1      41.117  11.676 -18.304  1.00  0.00    -0.005 C 
HETATM   19  C   UNL     1      42.156  11.168 -17.309  1.00  0.00     0.005 C 
ENDBRANCH  17  18
ENDBRANCH  16  17
ENDBRANCH  15  16
ENDBRANCH  14  15
ENDBRANCH  13  14
ENDBRANCH  12  13
ENDBRANCH  11  12
ENDBRANCH  10  11
ENDBRANCH   9  10
ENDBRANCH   8   9
ENDBRANCH   7   8
ENDBRANCH   6   7
ENDBRANCH   5   6
ENDBRANCH   3   5
ENDBRANCH   1   3
TORSDOF 15
ENDMDL
MODEL 16
REMARK VINA RESULT:      -4.4     28.637     30.874
REMARK  15 active torsions:
REMARK  status: ('A' for Active; 'I' for Inactive)
REMARK    1  A    between atoms: O_1  and  C_18 
REMARK    2  A    between atoms: C_3  and  C_4 
REMARK    3  A    between atoms: C_3  and  C_5 
REMARK    4  A    between atoms: C_4  and  C_6 
REMARK    5  A    between atoms: C_5  and  C_7 
REMARK    6  A    between atoms: C_6  and  C_8 
REMARK    7  A    between atoms: C_7  and  C_9 
REMARK    8  A    between atoms: C_8  and  C_10 
REMARK    9  A    between atoms: C_9  and  C_11 
REMARK   10  A    between atoms: C_10  and  C_12 
REMARK   11  A    between atoms: C_11  and  C_13 
REMARK   12  A    between atoms: C_12  and  C_14 
REMARK   13  A    between atoms: C_13  and  C_15 
REMARK   14  A    between atoms: C_14  and  C_16 
REMARK   15  A    between atoms: C_16  and  C_18 
ROOT
HETATM    1  O   UNL     1      40.836   8.948  -8.310  1.00  0.00    -0.776 OA
HETATM    2  H   UNL     1      40.722   9.885  -8.103  1.00  0.00     0.167 HD
ENDROOT
BRANCH   1   3
HETATM    3  C   UNL     1      39.776   8.136  -8.508  1.00  0.00     0.139 C 
HETATM    4  O   UNL     1      39.663   7.112  -7.849  1.00  0.00    -0.650 OA
BRANCH   3   5
HETATM    5  C   UNL     1      38.750   8.515  -9.545  1.00  0.00     0.110 C 
BRANCH   5   6
HETATM    6  C   UNL     1      38.368   7.349 -10.470  1.00  0.00     0.010 C 
BRANCH   6   7
HETATM    7  C   UNL     1      39.321   7.263 -11.667  1.00  0.00     0.001 C 
BRANCH   7   8
HETATM    8  C   UNL     1      39.590   8.653 -12.257  1.00  0.00     0.000 C 
BRANCH   8   9
HETATM    9  C   UNL     1      38.405   9.129 -13.106  1.00  0.00     0.000 C 
BRANCH   9  10
HETATM   10  C   UNL     1      38.180   8.201 -14.305  1.00  0.00     0.000 C 
BRANCH  10  11
HETATM   11  C   UNL     1      39.353   8.278 -15.289  1.00  0.00     0.000 C 
BRANCH  11  12
HETATM   12  C   UNL     1      39.416   7.025 -16.171  1.00  0.00     0.000 C 
BRANCH  12  13
HETATM   13  C   UNL     1      39.393   7.396 -17.657  1.00  0.00     0.000 C 
BRANCH  13  14
HETATM   14  C   UNL     1      40.442   8.470 -17.973  1.00  0.00     0.000 C 
BRANCH  14  15
HETATM   15  C   UNL     1      39.816   9.644 -18.736  1.00  0.00     0.000 C 
BRANCH  15  16
HETATM   16  C   UNL     1      39.140   9.164 -20.025  1.00  0.00     0.000 C 
BRANCH  16  17
HETATM   17  C   UNL     1      40.004   9.484 -21.251  1.00  0.00    -0.000 C 
BRANCH  17  18
HETATM   18  C   UNL     1      39.968   8.334 -22.265  1.00  0.00    -0.005 C 
HETATM   19  C   UNL     1      39.371   7.073 -21.647  1.00  0.00     0.005 C 
ENDBRANCH  17  18
ENDBRANCH  16  17
ENDBRANCH  15  16
ENDBRANCH  14  15
ENDBRANCH  13  14
ENDBRANCH  12  13
ENDBRANCH  11  12
ENDBRANCH  10  11
ENDBRANCH   9  10
ENDBRANCH   8   9
ENDBRANCH   7   8
ENDBRANCH   6   7
ENDBRANCH   5   6
ENDBRANCH   3   5
ENDBRANCH   1   3
TORSDOF 15
ENDMDL
MODEL 17
REMARK VINA RESULT:      -4.4      4.633      7.918
REMARK  15 active torsions:
REMARK  status: ('A' for Active; 'I' for Inactive)
REMARK    1  A    between atoms: O_1  and  C_18 
REMARK    2  A    between atoms: C_3  and  C_4 
REMARK    3  A    between atoms: C_3  and  C_5 
REMARK    4  A    between atoms: C_4  and  C_6 
REMARK    5  A    between atoms: C_5  and  C_7 
REMARK    6  A    between atoms: C_6  and  C_8 
REMARK    7  A    between atoms: C_7  and  C_9 
REMARK    8  A    between atoms: C_8  and  C_10 
REMARK    9  A    between atoms: C_9  and  C_11 
REMARK   10  A    between atoms: C_10  and  C_12 
REMARK   11  A    between atoms: C_11  and  C_13 
REMARK   12  A    between atoms: C_12  and  C_14 
REMARK   13  A    between atoms: C_13  and  C_15 
REMARK   14  A    between atoms: C_14  and  C_16 
REMARK   15  A    between atoms: C_16  and  C_18 
ROOT
HETATM    1  O   UNL     1      31.230 -18.759  -7.017  1.00  0.00    -0.776 OA
HETATM    2  H   UNL     1      30.804 -18.217  -6.339  1.00  0.00     0.167 HD
ENDROOT
BRANCH   1   3
HETATM    3  C   UNL     1      30.757 -19.981  -7.344  1.00  0.00     0.139 C 
HETATM    4  O   UNL     1      30.859 -20.903  -6.548  1.00  0.00    -0.650 OA
BRANCH   3   5
HETATM    5  C   UNL     1      30.109 -20.177  -8.690  1.00  0.00     0.110 C 
BRANCH   5   6
HETATM    6  C   UNL     1      29.906 -18.863  -9.459  1.00  0.00     0.010 C 
BRANCH   6   7
HETATM    7  C   UNL     1      30.571 -18.925 -10.839  1.00  0.00     0.001 C 
BRANCH   7   8
HETATM    8  C   UNL     1      30.250 -17.672 -11.662  1.00  0.00     0.000 C 
BRANCH   8   9
HETATM    9  C   UNL     1      30.935 -17.723 -13.033  1.00  0.00     0.000 C 
BRANCH   9  10
HETATM   10  C   UNL     1      31.839 -16.502 -13.241  1.00  0.00     0.000 C 
BRANCH  10  11
HETATM   11  C   UNL     1      31.792 -15.569 -12.025  1.00  0.00     0.000 C 
BRANCH  11  12
HETATM   12  C   UNL     1      31.547 -14.117 -12.453  1.00  0.00     0.000 C 
BRANCH  12  13
HETATM   13  C   UNL     1      30.998 -14.050 -13.882  1.00  0.00     0.000 C 
BRANCH  13  14
HETATM   14  C   UNL     1      29.588 -13.446 -13.902  1.00  0.00     0.000 C 
BRANCH  14  15
HETATM   15  C   UNL     1      28.536 -14.491 -13.511  1.00  0.00     0.000 C 
BRANCH  15  16
HETATM   16  C   UNL     1      27.694 -14.007 -12.325  1.00  0.00     0.000 C 
BRANCH  16  17
HETATM   17  C   UNL     1      28.195 -14.614 -11.010  1.00  0.00    -0.000 C 
BRANCH  17  18
HETATM   18  C   UNL     1      28.235 -13.559  -9.898  1.00  0.00    -0.005 C 
HETATM   19  C   UNL     1      28.994 -12.313 -10.347  1.00  0.00     0.005 C 
ENDBRANCH  17  18
ENDBRANCH  16  17
ENDBRANCH  15  16
ENDBRANCH  14  15
ENDBRANCH  13  14
ENDBRANCH  12  13
ENDBRANCH  11  12
ENDBRANCH  10  11
ENDBRANCH   9  10
ENDBRANCH   8   9
ENDBRANCH   7   8
ENDBRANCH   6   7
ENDBRANCH   5   6
ENDBRANCH   3   5
ENDBRANCH   1   3
TORSDOF 15
ENDMDL
MODEL 18
REMARK VINA RESULT:      -4.4     27.519     28.612
REMARK  15 active torsions:
REMARK  status: ('A' for Active; 'I' for Inactive)
REMARK    1  A    between atoms: O_1  and  C_18 
REMARK    2  A    between atoms: C_3  and  C_4 
REMARK    3  A    between atoms: C_3  and  C_5 
REMARK    4  A    between atoms: C_4  and  C_6 
REMARK    5  A    between atoms: C_5  and  C_7 
REMARK    6  A    between atoms: C_6  and  C_8 
REMARK    7  A    between atoms: C_7  and  C_9 
REMARK    8  A    between atoms: C_8  and  C_10 
REMARK    9  A    between atoms: C_9  and  C_11 
REMARK   10  A    between atoms: C_10  and  C_12 
REMARK   11  A    between atoms: C_11  and  C_13 
REMARK   12  A    between atoms: C_12  and  C_14 
REMARK   13  A    between atoms: C_13  and  C_15 
REMARK   14  A    between atoms: C_14  and  C_16 
REMARK   15  A    between atoms: C_16  and  C_18 
ROOT
HETATM    1  O   UNL     1      39.979   7.852 -18.244  1.00  0.00    -0.776 OA
HETATM    2  H   UNL     1      39.524   8.352 -18.936  1.00  0.00     0.167 HD
ENDROOT
BRANCH   1   3
HETATM    3  C   UNL     1      39.373   7.555 -17.075  1.00  0.00     0.139 C 
HETATM    4  O   UNL     1      39.518   6.446 -16.581  1.00  0.00    -0.650 OA
BRANCH   3   5
HETATM    5  C   UNL     1      38.528   8.607 -16.403  1.00  0.00     0.110 C 
BRANCH   5   6
HETATM    6  C   UNL     1      37.879   8.116 -15.100  1.00  0.00     0.010 C 
BRANCH   6   7
HETATM    7  C   UNL     1      38.449   8.862 -13.888  1.00  0.00     0.001 C 
BRANCH   7   8
HETATM    8  C   UNL     1      39.610   8.084 -13.258  1.00  0.00     0.000 C 
BRANCH   8   9
HETATM    9  C   UNL     1      39.122   7.211 -12.095  1.00  0.00     0.000 C 
BRANCH   9  10
HETATM   10  C   UNL     1      39.827   7.591 -10.789  1.00  0.00     0.000 C 
BRANCH  10  11
HETATM   11  C   UNL     1      39.702   9.094 -10.513  1.00  0.00     0.000 C 
BRANCH  11  12
HETATM   12  C   UNL     1      38.896   9.355  -9.235  1.00  0.00     0.000 C 
BRANCH  12  13
HETATM   13  C   UNL     1      38.973   8.158  -8.281  1.00  0.00     0.000 C 
BRANCH  13  14
HETATM   14  C   UNL     1      38.791   8.602  -6.825  1.00  0.00     0.000 C 
BRANCH  14  15
HETATM   15  C   UNL     1      38.527   7.399  -5.911  1.00  0.00     0.000 C 
BRANCH  15  16
HETATM   16  C   UNL     1      39.050   7.660  -4.494  1.00  0.00     0.000 C 
BRANCH  16  17
HETATM   17  C   UNL     1      40.579   7.770  -4.483  1.00  0.00    -0.000 C 
BRANCH  17  18
HETATM   18  C   UNL     1      41.036   9.009  -3.706  1.00  0.00    -0.005 C 
HETATM   19  C   UNL     1      41.318  10.177  -4.647  1.00  0.00     0.005 C 
ENDBRANCH  17  18
ENDBRANCH  16  17
ENDBRANCH  15  16
ENDBRANCH  14  15
ENDBRANCH  13  14
ENDBRANCH  12  13
ENDBRANCH  11  12
ENDBRANCH  10  11
ENDBRANCH   9  10
ENDBRANCH   8   9
ENDBRANCH   7   8
ENDBRANCH   6   7
ENDBRANCH   5   6
ENDBRANCH   3   5
ENDBRANCH   1   3
TORSDOF 15
ENDMDL
MODEL 19
REMARK VINA RESULT:      -4.4      4.590      7.221
REMARK  15 active torsions:
REMARK  status: ('A' for Active; 'I' for Inactive)
REMARK    1  A    between atoms: O_1  and  C_18 
REMARK    2  A    between atoms: C_3  and  C_4 
REMARK    3  A    between atoms: C_3  and  C_5 
REMARK    4  A    between atoms: C_4  and  C_6 
REMARK    5  A    between atoms: C_5  and  C_7 
REMARK    6  A    between atoms: C_6  and  C_8 
REMARK    7  A    between atoms: C_7  and  C_9 
REMARK    8  A    between atoms: C_8  and  C_10 
REMARK    9  A    between atoms: C_9  and  C_11 
REMARK   10  A    between atoms: C_10  and  C_12 
REMARK   11  A    between atoms: C_11  and  C_13 
REMARK   12  A    between atoms: C_12  and  C_14 
REMARK   13  A    between atoms: C_13  and  C_15 
REMARK   14  A    between atoms: C_14  and  C_16 
REMARK   15  A    between atoms: C_16  and  C_18 
ROOT
HETATM    1  O   UNL     1      31.379 -19.548  -7.150  1.00  0.00    -0.776 OA
HETATM    2  H   UNL     1      31.385 -19.203  -6.246  1.00  0.00     0.167 HD
ENDROOT
BRANCH   1   3
HETATM    3  C   UNL     1      30.339 -19.324  -7.981  1.00  0.00     0.139 C 
HETATM    4  O   UNL     1      29.713 -18.277  -7.903  1.00  0.00    -0.650 OA
BRANCH   3   5
HETATM    5  C   UNL     1      29.974 -20.378  -8.994  1.00  0.00     0.110 C 
BRANCH   5   6
HETATM    6  C   UNL     1      30.988 -20.486 -10.144  1.00  0.00     0.010 C 
BRANCH   6   7
HETATM    7  C   UNL     1      30.524 -19.680 -11.362  1.00  0.00     0.001 C 
BRANCH   7   8
HETATM    8  C   UNL     1      31.078 -20.278 -12.661  1.00  0.00     0.000 C 
BRANCH   8   9
HETATM    9  C   UNL     1      30.336 -19.724 -13.883  1.00  0.00     0.000 C 
BRANCH   9  10
HETATM   10  C   UNL     1      29.905 -18.270 -13.653  1.00  0.00     0.000 C 
BRANCH  10  11
HETATM   11  C   UNL     1      31.050 -17.301 -13.972  1.00  0.00     0.000 C 
BRANCH  11  12
HETATM   12  C   UNL     1      31.063 -16.123 -12.990  1.00  0.00     0.000 C 
BRANCH  12  13
HETATM   13  C   UNL     1      29.811 -16.128 -12.106  1.00  0.00     0.000 C 
BRANCH  13  14
HETATM   14  C   UNL     1      30.182 -15.967 -10.627  1.00  0.00     0.000 C 
BRANCH  14  15
HETATM   15  C   UNL     1      28.996 -15.426  -9.818  1.00  0.00     0.000 C 
BRANCH  15  16
HETATM   16  C   UNL     1      29.270 -13.999  -9.329  1.00  0.00     0.000 C 
BRANCH  16  17
HETATM   17  C   UNL     1      28.466 -12.976 -10.141  1.00  0.00    -0.000 C 
BRANCH  17  18
HETATM   18  C   UNL     1      29.388 -12.131 -11.027  1.00  0.00    -0.005 C 
HETATM   19  C   UNL     1      29.322 -12.585 -12.483  1.00  0.00     0.005 C 
ENDBRANCH  17  18
ENDBRANCH  16  17
ENDBRANCH  15  16
ENDBRANCH  14  15
ENDBRANCH  13  14
ENDBRANCH  12  13
ENDBRANCH  11  12
ENDBRANCH  10  11
ENDBRANCH   9  10
ENDBRANCH   8   9
ENDBRANCH   7   8
ENDBRANCH   6   7
ENDBRANCH   5   6
ENDBRANCH   3   5
ENDBRANCH   1   3
TORSDOF 15
ENDMDL
MODEL 20
REMARK VINA RESULT:      -4.3      4.255      7.322
REMARK  15 active torsions:
REMARK  status: ('A' for Active; 'I' for Inactive)
REMARK    1  A    between atoms: O_1  and  C_18 
REMARK    2  A    between atoms: C_3  and  C_4 
REMARK    3  A    between atoms: C_3  and  C_5 
REMARK    4  A    between atoms: C_4  and  C_6 
REMARK    5  A    between atoms: C_5  and  C_7 
REMARK    6  A    between atoms: C_6  and  C_8 
REMARK    7  A    between atoms: C_7  and  C_9 
REMARK    8  A    between atoms: C_8  and  C_10 
REMARK    9  A    between atoms: C_9  and  C_11 
REMARK   10  A    between atoms: C_10  and  C_12 
REMARK   11  A    between atoms: C_11  and  C_13 
REMARK   12  A    between atoms: C_12  and  C_14 
REMARK   13  A    between atoms: C_13  and  C_15 
REMARK   14  A    between atoms: C_14  and  C_16 
REMARK   15  A    between atoms: C_16  and  C_18 
ROOT
HETATM    1  O   UNL     1      31.760 -21.082 -10.098  1.00  0.00    -0.776 OA
HETATM    2  H   UNL     1      32.724 -21.111 -10.173  1.00  0.00     0.167 HD
ENDROOT
BRANCH   1   3
HETATM    3  C   UNL     1      31.009 -20.351 -10.949  1.00  0.00     0.139 C 
HETATM    4  O   UNL     1      30.779 -20.774 -12.073  1.00  0.00    -0.650 OA
BRANCH   3   5
HETATM    5  C   UNL     1      30.467 -19.023 -10.488  1.00  0.00     0.110 C 
BRANCH   5   6
HETATM    6  C   UNL     1      29.764 -19.099  -9.124  1.00  0.00     0.010 C 
BRANCH   6   7
HETATM    7  C   UNL     1      30.168 -17.920  -8.231  1.00  0.00     0.001 C 
BRANCH   7   8
HETATM    8  C   UNL     1      30.046 -16.591  -8.987  1.00  0.00     0.000 C 
BRANCH   8   9
HETATM    9  C   UNL     1      31.388 -15.850  -9.019  1.00  0.00     0.000 C 
BRANCH   9  10
HETATM   10  C   UNL     1      31.412 -14.710  -7.994  1.00  0.00     0.000 C 
BRANCH  10  11
HETATM   11  C   UNL     1      31.110 -13.363  -8.663  1.00  0.00     0.000 C 
BRANCH  11  12
HETATM   12  C   UNL     1      29.726 -12.843  -8.255  1.00  0.00     0.000 C 
BRANCH  12  13
HETATM   13  C   UNL     1      28.693 -13.107  -9.356  1.00  0.00     0.000 C 
BRANCH  13  14
HETATM   14  C   UNL     1      28.773 -12.039 -10.453  1.00  0.00     0.000 C 
BRANCH  14  15
HETATM   15  C   UNL     1      28.909 -12.682 -11.839  1.00  0.00     0.000 C 
BRANCH  15  16
HETATM   16  C   UNL     1      30.356 -12.607 -12.340  1.00  0.00     0.000 C 
BRANCH  16  17
HETATM   17  C   UNL     1      31.030 -13.983 -12.281  1.00  0.00    -0.000 C 
BRANCH  17  18
HETATM   18  C   UNL     1      32.539 -13.847 -12.045  1.00  0.00    -0.005 C 
HETATM   19  C   UNL     1      33.248 -15.187 -12.223  1.00  0.00     0.005 C 
ENDBRANCH  17  18
ENDBRANCH  16  17
ENDBRANCH  15  16
ENDBRANCH  14  15
ENDBRANCH  13  14
ENDBRANCH  12  13
ENDBRANCH  11  12
ENDBRANCH  10  11
ENDBRANCH   9  10
ENDBRANCH   8   9
ENDBRANCH   7   8
ENDBRANCH   6   7
ENDBRANCH   5   6
ENDBRANCH   3   5
ENDBRANCH   1   3
TORSDOF 15
ENDMDL
