MODEL 1
REMARK VINA RESULT:      -4.7      0.000      0.000
REMARK  15 active torsions:
REMARK  status: ('A' for Active; 'I' for Inactive)
REMARK    1  A    between atoms: O_1  and  C_22 
REMARK    2  A    between atoms: C_3  and  C_4 
REMARK    3  A    between atoms: C_3  and  C_5 
REMARK    4  A    between atoms: C_4  and  C_6 
REMARK    5  A    between atoms: C_5  and  C_7 
REMARK    6  A    between atoms: C_9  and  C_10 
REMARK    7  A    between atoms: C_9  and  C_13 
REMARK    8  A    between atoms: C_10  and  C_14 
REMARK    9  A    between atoms: C_11  and  C_12 
REMARK   10  A    between atoms: C_12  and  C_16 
REMARK   11  A    between atoms: C_13  and  C_22 
REMARK   12  A    between atoms: C_15  and  C_17 
REMARK   13  A    between atoms: C_15  and  C_20 
REMARK   14  A    between atoms: C_18  and  C_19 
REMARK   15  A    between atoms: C_18  and  C_21 
ROOT
HETATM    1  O   UNL     1      40.321   7.734 -14.522  1.00  0.00    -0.776 OA
HETATM    2  H   UNL     1      39.844   7.354 -15.273  1.00  0.00     0.167 HD
ENDROOT
BRANCH   1   3
HETATM    3  C   UNL     1      39.791   7.735 -13.280  1.00  0.00     0.139 C 
HETATM    4  O   UNL     1      39.467   6.681 -12.752  1.00  0.00    -0.650 OA
BRANCH   3   5
HETATM    5  C   UNL     1      39.591   9.036 -12.554  1.00  0.00     0.110 C 
BRANCH   5   6
HETATM    6  C   UNL     1      38.167   9.182 -11.998  1.00  0.00     0.014 C 
BRANCH   6   7
HETATM    7  C   UNL     1      38.118   9.097 -10.467  1.00  0.00     0.027 C 
BRANCH   7   8
HETATM    8  C   UNL     1      38.152   7.652 -10.037  1.00  0.00    -0.030 C 
HETATM    9  C   UNL     1      39.000   7.133  -9.129  1.00  0.00    -0.027 C 
BRANCH   9  10
HETATM   10  C   UNL     1      40.046   7.906  -8.366  1.00  0.00     0.053 C 
BRANCH  10  11
HETATM   11  C   UNL     1      41.077   8.500  -9.300  1.00  0.00    -0.027 C 
HETATM   12  C   UNL     1      41.630   9.729  -9.236  1.00  0.00    -0.027 C 
BRANCH  12  13
HETATM   13  C   UNL     1      41.360  10.793  -8.203  1.00  0.00     0.053 C 
BRANCH  13  14
HETATM   14  C   UNL     1      40.145  11.600  -8.597  1.00  0.00    -0.027 C 
HETATM   15  C   UNL     1      38.980  11.626  -7.917  1.00  0.00    -0.027 C 
BRANCH  15  16
HETATM   16  C   UNL     1      38.706  10.838  -6.662  1.00  0.00     0.053 C 
BRANCH  16  17
HETATM   17  C   UNL     1      37.551   9.886  -6.849  1.00  0.00    -0.027 C 
HETATM   18  C   UNL     1      37.237   8.909  -5.981  1.00  0.00    -0.030 C 
BRANCH  18  19
HETATM   19  C   UNL     1      37.990   8.613  -4.709  1.00  0.00     0.027 C 
BRANCH  19  20
HETATM   20  C   UNL     1      38.936   7.429  -4.934  1.00  0.00     0.004 C 
BRANCH  20  21
HETATM   21  C   UNL     1      40.336   7.725  -4.388  1.00  0.00    -0.000 C 
BRANCH  21  22
HETATM   22  C   UNL     1      40.295   8.873  -3.372  1.00  0.00    -0.005 C 
HETATM   23  C   UNL     1      40.142   8.344  -1.949  1.00  0.00     0.005 C 
ENDBRANCH  21  22
ENDBRANCH  20  21
ENDBRANCH  19  20
ENDBRANCH  18  19
ENDBRANCH  16  17
ENDBRANCH  15  16
ENDBRANCH  13  14
ENDBRANCH  12  13
ENDBRANCH  10  11
ENDBRANCH   9  10
ENDBRANCH   7   8
ENDBRANCH   6   7
ENDBRANCH   5   6
ENDBRANCH   3   5
ENDBRANCH   1   3
TORSDOF 15
ENDMDL
MODEL 2
REMARK VINA RESULT:      -4.7      3.903      7.222
REMARK  15 active torsions:
REMARK  status: ('A' for Active; 'I' for Inactive)
REMARK    1  A    between atoms: O_1  and  C_22 
REMARK    2  A    between atoms: C_3  and  C_4 
REMARK    3  A    between atoms: C_3  and  C_5 
REMARK    4  A    between atoms: C_4  and  C_6 
REMARK    5  A    between atoms: C_5  and  C_7 
REMARK    6  A    between atoms: C_9  and  C_10 
REMARK    7  A    between atoms: C_9  and  C_13 
REMARK    8  A    between atoms: C_10  and  C_14 
REMARK    9  A    between atoms: C_11  and  C_12 
REMARK   10  A    between atoms: C_12  and  C_16 
REMARK   11  A    between atoms: C_13  and  C_22 
REMARK   12  A    between atoms: C_15  and  C_17 
REMARK   13  A    between atoms: C_15  and  C_20 
REMARK   14  A    between atoms: C_18  and  C_19 
REMARK   15  A    between atoms: C_18  and  C_21 
ROOT
HETATM    1  O   UNL     1      44.158  12.275  -3.716  1.00  0.00    -0.776 OA
HETATM    2  H   UNL     1      44.495  13.182  -3.729  1.00  0.00     0.167 HD
ENDROOT
BRANCH   1   3
HETATM    3  C   UNL     1      43.022  11.956  -3.062  1.00  0.00     0.139 C 
HETATM    4  O   UNL     1      42.975  12.029  -1.843  1.00  0.00    -0.650 OA
BRANCH   3   5
HETATM    5  C   UNL     1      41.816  11.500  -3.837  1.00  0.00     0.110 C 
BRANCH   5   6
HETATM    6  C   UNL     1      41.963  10.060  -4.351  1.00  0.00     0.014 C 
BRANCH   6   7
HETATM    7  C   UNL     1      40.958   9.097  -3.707  1.00  0.00     0.027 C 
BRANCH   7   8
HETATM    8  C   UNL     1      40.733   7.915  -4.616  1.00  0.00    -0.030 C 
HETATM    9  C   UNL     1      39.529   7.451  -5.003  1.00  0.00    -0.027 C 
BRANCH   9  10
HETATM   10  C   UNL     1      38.198   8.045  -4.617  1.00  0.00     0.053 C 
BRANCH  10  11
HETATM   11  C   UNL     1      37.422   8.491  -5.837  1.00  0.00    -0.027 C 
HETATM   12  C   UNL     1      37.573   9.638  -6.531  1.00  0.00    -0.027 C 
BRANCH  12  13
HETATM   13  C   UNL     1      38.570  10.737  -6.262  1.00  0.00     0.053 C 
BRANCH  13  14
HETATM   14  C   UNL     1      38.947  11.420  -7.555  1.00  0.00    -0.027 C 
HETATM   15  C   UNL     1      40.093  11.211  -8.235  1.00  0.00    -0.027 C 
BRANCH  15  16
HETATM   16  C   UNL     1      41.186  10.271  -7.796  1.00  0.00     0.053 C 
BRANCH  16  17
HETATM   17  C   UNL     1      41.678   9.423  -8.943  1.00  0.00    -0.027 C 
HETATM   18  C   UNL     1      41.085   8.284  -9.341  1.00  0.00    -0.030 C 
BRANCH  18  19
HETATM   19  C   UNL     1      39.860   7.683  -8.701  1.00  0.00     0.027 C 
BRANCH  19  20
HETATM   20  C   UNL     1      38.718   7.632  -9.722  1.00  0.00     0.004 C 
BRANCH  20  21
HETATM   21  C   UNL     1      39.164   6.947 -11.018  1.00  0.00    -0.000 C 
BRANCH  21  22
HETATM   22  C   UNL     1      38.804   7.801 -12.239  1.00  0.00    -0.005 C 
HETATM   23  C   UNL     1      40.015   8.009 -13.143  1.00  0.00     0.005 C 
ENDBRANCH  21  22
ENDBRANCH  20  21
ENDBRANCH  19  20
ENDBRANCH  18  19
ENDBRANCH  16  17
ENDBRANCH  15  16
ENDBRANCH  13  14
ENDBRANCH  12  13
ENDBRANCH  10  11
ENDBRANCH   9  10
ENDBRANCH   7   8
ENDBRANCH   6   7
ENDBRANCH   5   6
ENDBRANCH   3   5
ENDBRANCH   1   3
TORSDOF 15
ENDMDL
MODEL 3
REMARK VINA RESULT:      -4.5      3.779      6.842
REMARK  15 active torsions:
REMARK  status: ('A' for Active; 'I' for Inactive)
REMARK    1  A    between atoms: O_1  and  C_22 
REMARK    2  A    between atoms: C_3  and  C_4 
REMARK    3  A    between atoms: C_3  and  C_5 
REMARK    4  A    between atoms: C_4  and  C_6 
REMARK    5  A    between atoms: C_5  and  C_7 
REMARK    6  A    between atoms: C_9  and  C_10 
REMARK    7  A    between atoms: C_9  and  C_13 
REMARK    8  A    between atoms: C_10  and  C_14 
REMARK    9  A    between atoms: C_11  and  C_12 
REMARK   10  A    between atoms: C_12  and  C_16 
REMARK   11  A    between atoms: C_13  and  C_22 
REMARK   12  A    between atoms: C_15  and  C_17 
REMARK   13  A    between atoms: C_15  and  C_20 
REMARK   14  A    between atoms: C_18  and  C_19 
REMARK   15  A    between atoms: C_18  and  C_21 
ROOT
HETATM    1  O   UNL     1      42.853  11.989 -16.693  1.00  0.00    -0.776 OA
HETATM    2  H   UNL     1      43.488  12.717 -16.662  1.00  0.00     0.167 HD
ENDROOT
BRANCH   1   3
HETATM    3  C   UNL     1      42.629  11.298 -17.832  1.00  0.00     0.139 C 
HETATM    4  O   UNL     1      43.376  11.438 -18.789  1.00  0.00    -0.650 OA
BRANCH   3   5
HETATM    5  C   UNL     1      41.453  10.366 -17.922  1.00  0.00     0.110 C 
BRANCH   5   6
HETATM    6  C   UNL     1      41.525   9.451 -19.153  1.00  0.00     0.014 C 
BRANCH   6   7
HETATM    7  C   UNL     1      40.685   8.178 -18.994  1.00  0.00     0.027 C 
BRANCH   7   8
HETATM    8  C   UNL     1      39.307   8.537 -18.497  1.00  0.00    -0.030 C 
HETATM    9  C   UNL     1      38.707   8.003 -17.416  1.00  0.00    -0.027 C 
BRANCH   9  10
HETATM   10  C   UNL     1      39.315   6.972 -16.499  1.00  0.00     0.053 C 
BRANCH  10  11
HETATM   11  C   UNL     1      38.762   7.092 -15.096  1.00  0.00    -0.027 C 
HETATM   12  C   UNL     1      39.401   7.546 -13.999  1.00  0.00    -0.027 C 
BRANCH  12  13
HETATM   13  C   UNL     1      40.816   8.060 -13.920  1.00  0.00     0.053 C 
BRANCH  13  14
HETATM   14  C   UNL     1      40.894   9.452 -14.501  1.00  0.00    -0.027 C 
HETATM   15  C   UNL     1      41.218  10.563 -13.809  1.00  0.00    -0.027 C 
BRANCH  15  16
HETATM   16  C   UNL     1      41.538  10.588 -12.337  1.00  0.00     0.053 C 
BRANCH  16  17
HETATM   17  C   UNL     1      40.429  11.230 -11.541  1.00  0.00    -0.027 C 
HETATM   18  C   UNL     1      40.305  11.122 -10.206  1.00  0.00    -0.030 C 
BRANCH  18  19
HETATM   19  C   UNL     1      41.238  10.341  -9.316  1.00  0.00     0.027 C 
BRANCH  19  20
HETATM   20  C   UNL     1      40.495   9.143  -8.717  1.00  0.00     0.004 C 
BRANCH  20  21
HETATM   21  C   UNL     1      40.774   7.863  -9.512  1.00  0.00    -0.000 C 
BRANCH  21  22
HETATM   22  C   UNL     1      39.583   7.505 -10.409  1.00  0.00    -0.005 C 
HETATM   23  C   UNL     1      38.274   8.017  -9.815  1.00  0.00     0.005 C 
ENDBRANCH  21  22
ENDBRANCH  20  21
ENDBRANCH  19  20
ENDBRANCH  18  19
ENDBRANCH  16  17
ENDBRANCH  15  16
ENDBRANCH  13  14
ENDBRANCH  12  13
ENDBRANCH  10  11
ENDBRANCH   9  10
ENDBRANCH   7   8
ENDBRANCH   6   7
ENDBRANCH   5   6
ENDBRANCH   3   5
ENDBRANCH   1   3
TORSDOF 15
ENDMDL
MODEL 4
REMARK VINA RESULT:      -4.5      3.721      6.739
REMARK  15 active torsions:
REMARK  status: ('A' for Active; 'I' for Inactive)
REMARK    1  A    between atoms: O_1  and  C_22 
REMARK    2  A    between atoms: C_3  and  C_4 
REMARK    3  A    between atoms: C_3  and  C_5 
REMARK    4  A    between atoms: C_4  and  C_6 
REMARK    5  A    between atoms: C_5  and  C_7 
REMARK    6  A    between atoms: C_9  and  C_10 
REMARK    7  A    between atoms: C_9  and  C_13 
REMARK    8  A    between atoms: C_10  and  C_14 
REMARK    9  A    between atoms: C_11  and  C_12 
REMARK   10  A    between atoms: C_12  and  C_16 
REMARK   11  A    between atoms: C_13  and  C_22 
REMARK   12  A    between atoms: C_15  and  C_17 
REMARK   13  A    between atoms: C_15  and  C_20 
REMARK   14  A    between atoms: C_18  and  C_19 
REMARK   15  A    between atoms: C_18  and  C_21 
ROOT
HETATM    1  O   UNL     1      38.947  13.766 -11.819  1.00  0.00    -0.776 OA
HETATM    2  H   UNL     1      39.802  14.213 -11.899  1.00  0.00     0.167 HD
ENDROOT
BRANCH   1   3
HETATM    3  C   UNL     1      38.555  13.203 -10.656  1.00  0.00     0.139 C 
HETATM    4  O   UNL     1      39.229  13.350  -9.647  1.00  0.00    -0.650 OA
BRANCH   3   5
HETATM    5  C   UNL     1      37.295  12.384 -10.610  1.00  0.00     0.110 C 
BRANCH   5   6
HETATM    6  C   UNL     1      37.498  10.968 -11.167  1.00  0.00     0.014 C 
BRANCH   6   7
HETATM    7  C   UNL     1      37.199   9.876 -10.131  1.00  0.00     0.027 C 
BRANCH   7   8
HETATM    8  C   UNL     1      37.392   8.517 -10.756  1.00  0.00    -0.030 C 
HETATM    9  C   UNL     1      38.181   7.542 -10.265  1.00  0.00    -0.027 C 
BRANCH   9  10
HETATM   10  C   UNL     1      38.990   7.628  -8.996  1.00  0.00     0.053 C 
BRANCH  10  11
HETATM   11  C   UNL     1      40.473   7.667  -9.293  1.00  0.00    -0.027 C 
HETATM   12  C   UNL     1      41.225   8.751  -9.573  1.00  0.00    -0.027 C 
BRANCH  12  13
HETATM   13  C   UNL     1      40.762  10.185  -9.637  1.00  0.00     0.053 C 
BRANCH  13  14
HETATM   14  C   UNL     1      41.774  11.022 -10.384  1.00  0.00    -0.027 C 
HETATM   15  C   UNL     1      41.798  11.194 -11.721  1.00  0.00    -0.027 C 
BRANCH  15  16
HETATM   16  C   UNL     1      40.825  10.561 -12.682  1.00  0.00     0.053 C 
BRANCH  16  17
HETATM   17  C   UNL     1      41.527   9.658 -13.665  1.00  0.00    -0.027 C 
HETATM   18  C   UNL     1      41.065   8.452 -14.038  1.00  0.00    -0.030 C 
BRANCH  18  19
HETATM   19  C   UNL     1      39.795   7.822 -13.526  1.00  0.00     0.027 C 
BRANCH  19  20
HETATM   20  C   UNL     1      39.078   7.102 -14.673  1.00  0.00     0.004 C 
BRANCH  20  21
HETATM   21  C   UNL     1      37.941   7.957 -15.241  1.00  0.00    -0.000 C 
BRANCH  21  22
HETATM   22  C   UNL     1      37.659   9.163 -14.336  1.00  0.00    -0.005 C 
HETATM   23  C   UNL     1      37.585  10.454 -15.145  1.00  0.00     0.005 C 
ENDBRANCH  21  22
ENDBRANCH  20  21
ENDBRANCH  19  20
ENDBRANCH  18  19
ENDBRANCH  16  17
ENDBRANCH  15  16
ENDBRANCH  13  14
ENDBRANCH  12  13
ENDBRANCH  10  11
ENDBRANCH   9  10
ENDBRANCH   7   8
ENDBRANCH   6   7
ENDBRANCH   5   6
ENDBRANCH   3   5
ENDBRANCH   1   3
TORSDOF 15
ENDMDL
MODEL 5
REMARK VINA RESULT:      -4.5      5.479     10.742
REMARK  15 active torsions:
REMARK  status: ('A' for Active; 'I' for Inactive)
REMARK    1  A    between atoms: O_1  and  C_22 
REMARK    2  A    between atoms: C_3  and  C_4 
REMARK    3  A    between atoms: C_3  and  C_5 
REMARK    4  A    between atoms: C_4  and  C_6 
REMARK    5  A    between atoms: C_5  and  C_7 
REMARK    6  A    between atoms: C_9  and  C_10 
REMARK    7  A    between atoms: C_9  and  C_13 
REMARK    8  A    between atoms: C_10  and  C_14 
REMARK    9  A    between atoms: C_11  and  C_12 
REMARK   10  A    between atoms: C_12  and  C_16 
REMARK   11  A    between atoms: C_13  and  C_22 
REMARK   12  A    between atoms: C_15  and  C_17 
REMARK   13  A    between atoms: C_15  and  C_20 
REMARK   14  A    between atoms: C_18  and  C_19 
REMARK   15  A    between atoms: C_18  and  C_21 
ROOT
HETATM    1  O   UNL     1      39.573   6.288 -10.947  1.00  0.00    -0.776 OA
HETATM    2  H   UNL     1      40.205   5.777 -11.471  1.00  0.00     0.167 HD
ENDROOT
BRANCH   1   3
HETATM    3  C   UNL     1      39.568   7.638 -10.973  1.00  0.00     0.139 C 
HETATM    4  O   UNL     1      40.319   8.268 -10.243  1.00  0.00    -0.650 OA
BRANCH   3   5
HETATM    5  C   UNL     1      38.627   8.364 -11.895  1.00  0.00     0.110 C 
BRANCH   5   6
HETATM    6  C   UNL     1      39.357   9.020 -13.076  1.00  0.00     0.014 C 
BRANCH   6   7
HETATM    7  C   UNL     1      40.137   8.008 -13.925  1.00  0.00     0.027 C 
BRANCH   7   8
HETATM    8  C   UNL     1      39.178   7.046 -14.578  1.00  0.00    -0.030 C 
HETATM    9  C   UNL     1      38.597   7.225 -15.780  1.00  0.00    -0.027 C 
BRANCH   9  10
HETATM   10  C   UNL     1      38.822   8.403 -16.693  1.00  0.00     0.053 C 
BRANCH  10  11
HETATM   11  C   UNL     1      40.038   8.194 -17.569  1.00  0.00    -0.027 C 
HETATM   12  C   UNL     1      40.080   7.632 -18.794  1.00  0.00    -0.027 C 
BRANCH  12  13
HETATM   13  C   UNL     1      38.915   7.098 -19.588  1.00  0.00     0.053 C 
BRANCH  13  14
HETATM   14  C   UNL     1      39.321   6.894 -21.028  1.00  0.00    -0.027 C 
HETATM   15  C   UNL     1      39.302   7.850 -21.980  1.00  0.00    -0.027 C 
BRANCH  15  16
HETATM   16  C   UNL     1      38.856   9.271 -21.754  1.00  0.00     0.053 C 
BRANCH  16  17
HETATM   17  C   UNL     1      37.361   9.358 -21.572  1.00  0.00    -0.027 C 
HETATM   18  C   UNL     1      36.767   9.975 -20.535  1.00  0.00    -0.030 C 
BRANCH  18  19
HETATM   19  C   UNL     1      37.498  10.654 -19.405  1.00  0.00     0.027 C 
BRANCH  19  20
HETATM   20  C   UNL     1      36.485  11.255 -18.424  1.00  0.00     0.004 C 
BRANCH  20  21
HETATM   21  C   UNL     1      37.162  11.676 -17.116  1.00  0.00    -0.000 C 
BRANCH  21  22
HETATM   22  C   UNL     1      36.150  11.713 -15.964  1.00  0.00    -0.005 C 
HETATM   23  C   UNL     1      36.442  10.623 -14.938  1.00  0.00     0.005 C 
ENDBRANCH  21  22
ENDBRANCH  20  21
ENDBRANCH  19  20
ENDBRANCH  18  19
ENDBRANCH  16  17
ENDBRANCH  15  16
ENDBRANCH  13  14
ENDBRANCH  12  13
ENDBRANCH  10  11
ENDBRANCH   9  10
ENDBRANCH   7   8
ENDBRANCH   6   7
ENDBRANCH   5   6
ENDBRANCH   3   5
ENDBRANCH   1   3
TORSDOF 15
ENDMDL
MODEL 6
REMARK VINA RESULT:      -4.5     25.818     28.222
REMARK  15 active torsions:
REMARK  status: ('A' for Active; 'I' for Inactive)
REMARK    1  A    between atoms: O_1  and  C_22 
REMARK    2  A    between atoms: C_3  and  C_4 
REMARK    3  A    between atoms: C_3  and  C_5 
REMARK    4  A    between atoms: C_4  and  C_6 
REMARK    5  A    between atoms: C_5  and  C_7 
REMARK    6  A    between atoms: C_9  and  C_10 
REMARK    7  A    between atoms: C_9  and  C_13 
REMARK    8  A    between atoms: C_10  and  C_14 
REMARK    9  A    between atoms: C_11  and  C_12 
REMARK   10  A    between atoms: C_12  and  C_16 
REMARK   11  A    between atoms: C_13  and  C_22 
REMARK   12  A    between atoms: C_15  and  C_17 
REMARK   13  A    between atoms: C_15  and  C_20 
REMARK   14  A    between atoms: C_18  and  C_19 
REMARK   15  A    between atoms: C_18  and  C_21 
ROOT
HETATM    1  O   UNL     1      32.610 -20.337 -14.242  1.00  0.00    -0.776 OA
HETATM    2  H   UNL     1      32.732 -20.356 -13.282  1.00  0.00     0.167 HD
ENDROOT
BRANCH   1   3
HETATM    3  C   UNL     1      31.393 -20.515 -14.799  1.00  0.00     0.139 C 
HETATM    4  O   UNL     1      31.295 -20.756 -15.993  1.00  0.00    -0.650 OA
BRANCH   3   5
HETATM    5  C   UNL     1      30.158 -20.404 -13.948  1.00  0.00     0.110 C 
BRANCH   5   6
HETATM    6  C   UNL     1      29.952 -18.984 -13.400  1.00  0.00     0.014 C 
BRANCH   6   7
HETATM    7  C   UNL     1      30.594 -18.783 -12.021  1.00  0.00     0.027 C 
BRANCH   7   8
HETATM    8  C   UNL     1      30.155 -17.460 -11.445  1.00  0.00    -0.030 C 
HETATM    9  C   UNL     1      30.762 -16.278 -11.664  1.00  0.00    -0.027 C 
BRANCH   9  10
HETATM   10  C   UNL     1      31.969 -16.064 -12.541  1.00  0.00     0.053 C 
BRANCH  10  11
HETATM   11  C   UNL     1      31.805 -14.836 -13.408  1.00  0.00    -0.027 C 
HETATM   12  C   UNL     1      31.105 -14.729 -14.556  1.00  0.00    -0.027 C 
BRANCH  12  13
HETATM   13  C   UNL     1      30.303 -15.811 -15.234  1.00  0.00     0.053 C 
BRANCH  13  14
HETATM   14  C   UNL     1      31.200 -16.641 -16.121  1.00  0.00    -0.027 C 
HETATM   15  C   UNL     1      31.476 -16.371 -17.413  1.00  0.00    -0.027 C 
BRANCH  15  16
HETATM   16  C   UNL     1      30.913 -15.202 -18.179  1.00  0.00     0.053 C 
BRANCH  16  17
HETATM   17  C   UNL     1      29.761 -15.620 -19.058  1.00  0.00    -0.027 C 
HETATM   18  C   UNL     1      28.598 -14.950 -19.139  1.00  0.00    -0.030 C 
BRANCH  18  19
HETATM   19  C   UNL     1      28.270 -13.701 -18.362  1.00  0.00     0.027 C 
BRANCH  19  20
HETATM   20  C   UNL     1      27.465 -14.068 -17.112  1.00  0.00     0.004 C 
BRANCH  20  21
HETATM   21  C   UNL     1      27.789 -13.127 -15.946  1.00  0.00    -0.000 C 
BRANCH  21  22
HETATM   22  C   UNL     1      29.000 -12.247 -16.276  1.00  0.00    -0.005 C 
HETATM   23  C   UNL     1      29.421 -11.414 -15.068  1.00  0.00     0.005 C 
ENDBRANCH  21  22
ENDBRANCH  20  21
ENDBRANCH  19  20
ENDBRANCH  18  19
ENDBRANCH  16  17
ENDBRANCH  15  16
ENDBRANCH  13  14
ENDBRANCH  12  13
ENDBRANCH  10  11
ENDBRANCH   9  10
ENDBRANCH   7   8
ENDBRANCH   6   7
ENDBRANCH   5   6
ENDBRANCH   3   5
ENDBRANCH   1   3
TORSDOF 15
ENDMDL
MODEL 7
REMARK VINA RESULT:      -4.5      3.585      6.130
REMARK  15 active torsions:
REMARK  status: ('A' for Active; 'I' for Inactive)
REMARK    1  A    between atoms: O_1  and  C_22 
REMARK    2  A    between atoms: C_3  and  C_4 
REMARK    3  A    between atoms: C_3  and  C_5 
REMARK    4  A    between atoms: C_4  and  C_6 
REMARK    5  A    between atoms: C_5  and  C_7 
REMARK    6  A    between atoms: C_9  and  C_10 
REMARK    7  A    between atoms: C_9  and  C_13 
REMARK    8  A    between atoms: C_10  and  C_14 
REMARK    9  A    between atoms: C_11  and  C_12 
REMARK   10  A    between atoms: C_12  and  C_16 
REMARK   11  A    between atoms: C_13  and  C_22 
REMARK   12  A    between atoms: C_15  and  C_17 
REMARK   13  A    between atoms: C_15  and  C_20 
REMARK   14  A    between atoms: C_18  and  C_19 
REMARK   15  A    between atoms: C_18  and  C_21 
ROOT
HETATM    1  O   UNL     1      43.333  11.477 -13.916  1.00  0.00    -0.776 OA
HETATM    2  H   UNL     1      43.768  12.198 -13.441  1.00  0.00     0.167 HD
ENDROOT
BRANCH   1   3
HETATM    3  C   UNL     1      42.271  10.828 -13.392  1.00  0.00     0.139 C 
HETATM    4  O   UNL     1      41.792  11.196 -12.329  1.00  0.00    -0.650 OA
BRANCH   3   5
HETATM    5  C   UNL     1      41.688   9.644 -14.113  1.00  0.00     0.110 C 
BRANCH   5   6
HETATM    6  C   UNL     1      40.506   9.023 -13.355  1.00  0.00     0.014 C 
BRANCH   6   7
HETATM    7  C   UNL     1      40.311   7.536 -13.679  1.00  0.00     0.027 C 
BRANCH   7   8
HETATM    8  C   UNL     1      38.878   7.288 -14.079  1.00  0.00    -0.030 C 
HETATM    9  C   UNL     1      38.419   7.259 -15.344  1.00  0.00    -0.027 C 
BRANCH   9  10
HETATM   10  C   UNL     1      39.258   7.445 -16.583  1.00  0.00     0.053 C 
BRANCH  10  11
HETATM   11  C   UNL     1      38.584   8.378 -17.566  1.00  0.00    -0.027 C 
HETATM   12  C   UNL     1      38.184   9.648 -17.350  1.00  0.00    -0.027 C 
BRANCH  12  13
HETATM   13  C   UNL     1      38.335  10.443 -16.078  1.00  0.00     0.053 C 
BRANCH  13  14
HETATM   14  C   UNL     1      36.997  10.579 -15.392  1.00  0.00    -0.027 C 
HETATM   15  C   UNL     1      36.819  10.693 -14.060  1.00  0.00    -0.027 C 
BRANCH  15  16
HETATM   16  C   UNL     1      37.933  10.686 -13.046  1.00  0.00     0.053 C 
BRANCH  16  17
HETATM   17  C   UNL     1      37.435  11.073 -11.675  1.00  0.00    -0.027 C 
HETATM   18  C   UNL     1      37.176  10.190 -10.695  1.00  0.00    -0.030 C 
BRANCH  18  19
HETATM   19  C   UNL     1      37.331   8.696 -10.820  1.00  0.00     0.027 C 
BRANCH  19  20
HETATM   20  C   UNL     1      38.181   8.167  -9.661  1.00  0.00     0.004 C 
BRANCH  20  21
HETATM   21  C   UNL     1      39.421   7.428 -10.174  1.00  0.00    -0.000 C 
BRANCH  21  22
HETATM   22  C   UNL     1      40.683   7.906  -9.447  1.00  0.00    -0.005 C 
HETATM   23  C   UNL     1      40.769   9.430  -9.436  1.00  0.00     0.005 C 
ENDBRANCH  21  22
ENDBRANCH  20  21
ENDBRANCH  19  20
ENDBRANCH  18  19
ENDBRANCH  16  17
ENDBRANCH  15  16
ENDBRANCH  13  14
ENDBRANCH  12  13
ENDBRANCH  10  11
ENDBRANCH   9  10
ENDBRANCH   7   8
ENDBRANCH   6   7
ENDBRANCH   5   6
ENDBRANCH   3   5
ENDBRANCH   1   3
TORSDOF 15
ENDMDL
MODEL 8
REMARK VINA RESULT:      -4.4     25.989     28.273
REMARK  15 active torsions:
REMARK  status: ('A' for Active; 'I' for Inactive)
REMARK    1  A    between atoms: O_1  and  C_22 
REMARK    2  A    between atoms: C_3  and  C_4 
REMARK    3  A    between atoms: C_3  and  C_5 
REMARK    4  A    between atoms: C_4  and  C_6 
REMARK    5  A    between atoms: C_5  and  C_7 
REMARK    6  A    between atoms: C_9  and  C_10 
REMARK    7  A    between atoms: C_9  and  C_13 
REMARK    8  A    between atoms: C_10  and  C_14 
REMARK    9  A    between atoms: C_11  and  C_12 
REMARK   10  A    between atoms: C_12  and  C_16 
REMARK   11  A    between atoms: C_13  and  C_22 
REMARK   12  A    between atoms: C_15  and  C_17 
REMARK   13  A    between atoms: C_15  and  C_20 
REMARK   14  A    between atoms: C_18  and  C_19 
REMARK   15  A    between atoms: C_18  and  C_21 
ROOT
HETATM    1  O   UNL     1      31.640 -21.103  -5.374  1.00  0.00    -0.776 OA
HETATM    2  H   UNL     1      31.447 -22.051  -5.371  1.00  0.00     0.167 HD
ENDROOT
BRANCH   1   3
HETATM    3  C   UNL     1      31.073 -20.273  -6.276  1.00  0.00     0.139 C 
HETATM    4  O   UNL     1      30.980 -20.612  -7.446  1.00  0.00    -0.650 OA
BRANCH   3   5
HETATM    5  C   UNL     1      30.567 -18.927  -5.837  1.00  0.00     0.110 C 
BRANCH   5   6
HETATM    6  C   UNL     1      30.243 -18.009  -7.024  1.00  0.00     0.014 C 
BRANCH   6   7
HETATM    7  C   UNL     1      30.161 -16.530  -6.624  1.00  0.00     0.027 C 
BRANCH   7   8
HETATM    8  C   UNL     1      30.952 -15.695  -7.599  1.00  0.00    -0.030 C 
HETATM    9  C   UNL     1      30.463 -15.152  -8.731  1.00  0.00    -0.027 C 
BRANCH   9  10
HETATM   10  C   UNL     1      29.038 -15.262  -9.209  1.00  0.00     0.053 C 
BRANCH  10  11
HETATM   11  C   UNL     1      28.453 -13.900  -9.508  1.00  0.00    -0.027 C 
HETATM   12  C   UNL     1      28.027 -13.434 -10.700  1.00  0.00    -0.027 C 
BRANCH  12  13
HETATM   13  C   UNL     1      28.017 -14.174 -12.013  1.00  0.00     0.053 C 
BRANCH  13  14
HETATM   14  C   UNL     1      28.819 -13.413 -13.042  1.00  0.00    -0.027 C 
HETATM   15  C   UNL     1      30.160 -13.472 -13.176  1.00  0.00    -0.027 C 
BRANCH  15  16
HETATM   16  C   UNL     1      31.069 -14.298 -12.304  1.00  0.00     0.053 C 
BRANCH  16  17
HETATM   17  C   UNL     1      31.710 -15.421 -13.081  1.00  0.00    -0.027 C 
HETATM   18  C   UNL     1      31.377 -16.716 -12.938  1.00  0.00    -0.030 C 
BRANCH  18  19
HETATM   19  C   UNL     1      30.333 -17.236 -11.981  1.00  0.00     0.027 C 
BRANCH  19  20
HETATM   20  C   UNL     1      30.278 -18.765 -12.061  1.00  0.00     0.004 C 
BRANCH  20  21
HETATM   21  C   UNL     1      31.057 -19.286 -13.273  1.00  0.00    -0.000 C 
BRANCH  21  22
HETATM   22  C   UNL     1      30.181 -20.206 -14.132  1.00  0.00    -0.005 C 
HETATM   23  C   UNL     1      30.893 -20.596 -15.424  1.00  0.00     0.005 C 
ENDBRANCH  21  22
ENDBRANCH  20  21
ENDBRANCH  19  20
ENDBRANCH  18  19
ENDBRANCH  16  17
ENDBRANCH  15  16
ENDBRANCH  13  14
ENDBRANCH  12  13
ENDBRANCH  10  11
ENDBRANCH   9  10
ENDBRANCH   7   8
ENDBRANCH   6   7
ENDBRANCH   5   6
ENDBRANCH   3   5
ENDBRANCH   1   3
TORSDOF 15
ENDMDL
MODEL 9
REMARK VINA RESULT:      -4.4     24.923     26.672
REMARK  15 active torsions:
REMARK  status: ('A' for Active; 'I' for Inactive)
REMARK    1  A    between atoms: O_1  and  C_22 
REMARK    2  A    between atoms: C_3  and  C_4 
REMARK    3  A    between atoms: C_3  and  C_5 
REMARK    4  A    between atoms: C_4  and  C_6 
REMARK    5  A    between atoms: C_5  and  C_7 
REMARK    6  A    between atoms: C_9  and  C_10 
REMARK    7  A    between atoms: C_9  and  C_13 
REMARK    8  A    between atoms: C_10  and  C_14 
REMARK    9  A    between atoms: C_11  and  C_12 
REMARK   10  A    between atoms: C_12  and  C_16 
REMARK   11  A    between atoms: C_13  and  C_22 
REMARK   12  A    between atoms: C_15  and  C_17 
REMARK   13  A    between atoms: C_15  and  C_20 
REMARK   14  A    between atoms: C_18  and  C_19 
REMARK   15  A    between atoms: C_18  and  C_21 
ROOT
HETATM    1  O   UNL     1      32.487 -20.339  -9.641  1.00  0.00    -0.776 OA
HETATM    2  H   UNL     1      33.170 -21.021  -9.705  1.00  0.00     0.167 HD
ENDROOT
BRANCH   1   3
HETATM    3  C   UNL     1      31.199 -20.602  -9.950  1.00  0.00     0.139 C 
HETATM    4  O   UNL     1      30.907 -21.005 -11.067  1.00  0.00    -0.650 OA
BRANCH   3   5
HETATM    5  C   UNL     1      30.124 -20.386  -8.921  1.00  0.00     0.110 C 
BRANCH   5   6
HETATM    6  C   UNL     1      29.585 -18.949  -8.932  1.00  0.00     0.014 C 
BRANCH   6   7
HETATM    7  C   UNL     1      30.299 -18.042  -7.921  1.00  0.00     0.027 C 
BRANCH   7   8
HETATM    8  C   UNL     1      30.543 -18.801  -6.641  1.00  0.00    -0.030 C 
HETATM    9  C   UNL     1      30.444 -18.285  -5.401  1.00  0.00    -0.027 C 
BRANCH   9  10
HETATM   10  C   UNL     1      30.048 -16.867  -5.073  1.00  0.00     0.053 C 
BRANCH  10  11
HETATM   11  C   UNL     1      31.203 -16.102  -4.467  1.00  0.00    -0.027 C 
HETATM   12  C   UNL     1      32.219 -15.499  -5.117  1.00  0.00    -0.027 C 
BRANCH  12  13
HETATM   13  C   UNL     1      32.429 -15.430  -6.608  1.00  0.00     0.053 C 
BRANCH  13  14
HETATM   14  C   UNL     1      32.418 -13.991  -7.066  1.00  0.00    -0.027 C 
HETATM   15  C   UNL     1      31.487 -13.442  -7.873  1.00  0.00    -0.027 C 
BRANCH  15  16
HETATM   16  C   UNL     1      30.318 -14.190  -8.458  1.00  0.00     0.053 C 
BRANCH  16  17
HETATM   17  C   UNL     1      29.281 -14.504  -7.408  1.00  0.00    -0.027 C 
HETATM   18  C   UNL     1      28.685 -13.575  -6.641  1.00  0.00    -0.030 C 
BRANCH  18  19
HETATM   19  C   UNL     1      28.968 -12.095  -6.706  1.00  0.00     0.027 C 
BRANCH  19  20
HETATM   20  C   UNL     1      29.175 -11.548  -5.290  1.00  0.00     0.004 C 
BRANCH  20  21
HETATM   21  C   UNL     1      30.287 -12.307  -4.559  1.00  0.00    -0.000 C 
BRANCH  21  22
HETATM   22  C   UNL     1      29.835 -12.719  -3.153  1.00  0.00    -0.005 C 
HETATM   23  C   UNL     1      31.027 -13.090  -2.277  1.00  0.00     0.005 C 
ENDBRANCH  21  22
ENDBRANCH  20  21
ENDBRANCH  19  20
ENDBRANCH  18  19
ENDBRANCH  16  17
ENDBRANCH  15  16
ENDBRANCH  13  14
ENDBRANCH  12  13
ENDBRANCH  10  11
ENDBRANCH   9  10
ENDBRANCH   7   8
ENDBRANCH   6   7
ENDBRANCH   5   6
ENDBRANCH   3   5
ENDBRANCH   1   3
TORSDOF 15
ENDMDL
MODEL 10
REMARK VINA RESULT:      -4.4      3.902      9.193
REMARK  15 active torsions:
REMARK  status: ('A' for Active; 'I' for Inactive)
REMARK    1  A    between atoms: O_1  and  C_22 
REMARK    2  A    between atoms: C_3  and  C_4 
REMARK    3  A    between atoms: C_3  and  C_5 
REMARK    4  A    between atoms: C_4  and  C_6 
REMARK    5  A    between atoms: C_5  and  C_7 
REMARK    6  A    between atoms: C_9  and  C_10 
REMARK    7  A    between atoms: C_9  and  C_13 
REMARK    8  A    between atoms: C_10  and  C_14 
REMARK    9  A    between atoms: C_11  and  C_12 
REMARK   10  A    between atoms: C_12  and  C_16 
REMARK   11  A    between atoms: C_13  and  C_22 
REMARK   12  A    between atoms: C_15  and  C_17 
REMARK   13  A    between atoms: C_15  and  C_20 
REMARK   14  A    between atoms: C_18  and  C_19 
REMARK   15  A    between atoms: C_18  and  C_21 
ROOT
HETATM    1  O   UNL     1      41.402  10.430  -5.414  1.00  0.00    -0.776 OA
HETATM    2  H   UNL     1      41.170  10.102  -6.295  1.00  0.00     0.167 HD
ENDROOT
BRANCH   1   3
HETATM    3  C   UNL     1      40.532  10.354  -4.385  1.00  0.00     0.139 C 
HETATM    4  O   UNL     1      39.665  11.206  -4.251  1.00  0.00    -0.650 OA
BRANCH   3   5
HETATM    5  C   UNL     1      40.639   9.226  -3.396  1.00  0.00     0.110 C 
BRANCH   5   6
HETATM    6  C   UNL     1      40.384   7.857  -4.042  1.00  0.00     0.014 C 
BRANCH   6   7
HETATM    7  C   UNL     1      39.064   7.808  -4.822  1.00  0.00     0.027 C 
BRANCH   7   8
HETATM    8  C   UNL     1      39.203   6.873  -5.997  1.00  0.00    -0.030 C 
HETATM    9  C   UNL     1      39.332   7.254  -7.282  1.00  0.00    -0.027 C 
BRANCH   9  10
HETATM   10  C   UNL     1      39.386   8.680  -7.770  1.00  0.00     0.053 C 
BRANCH  10  11
HETATM   11  C   UNL     1      40.763   9.030  -8.289  1.00  0.00    -0.027 C 
HETATM   12  C   UNL     1      41.139   9.187  -9.575  1.00  0.00    -0.027 C 
BRANCH  12  13
HETATM   13  C   UNL     1      40.265   9.069 -10.797  1.00  0.00     0.053 C 
BRANCH  13  14
HETATM   14  C   UNL     1      39.835   7.634 -10.989  1.00  0.00    -0.027 C 
HETATM   15  C   UNL     1      39.304   7.130 -12.121  1.00  0.00    -0.027 C 
BRANCH  15  16
HETATM   16  C   UNL     1      39.041   7.929 -13.371  1.00  0.00     0.053 C 
BRANCH  16  17
HETATM   17  C   UNL     1      40.204   7.856 -14.328  1.00  0.00    -0.027 C 
HETATM   18  C   UNL     1      40.075   7.878 -15.667  1.00  0.00    -0.030 C 
BRANCH  18  19
HETATM   19  C   UNL     1      38.763   7.965 -16.403  1.00  0.00     0.027 C 
BRANCH  19  20
HETATM   20  C   UNL     1      38.971   8.679 -17.743  1.00  0.00     0.004 C 
BRANCH  20  21
HETATM   21  C   UNL     1      38.911   7.691 -18.913  1.00  0.00    -0.000 C 
BRANCH  21  22
HETATM   22  C   UNL     1      40.228   7.692 -19.697  1.00  0.00    -0.005 C 
HETATM   23  C   UNL     1      41.217   8.696 -19.113  1.00  0.00     0.005 C 
ENDBRANCH  21  22
ENDBRANCH  20  21
ENDBRANCH  19  20
ENDBRANCH  18  19
ENDBRANCH  16  17
ENDBRANCH  15  16
ENDBRANCH  13  14
ENDBRANCH  12  13
ENDBRANCH  10  11
ENDBRANCH   9  10
ENDBRANCH   7   8
ENDBRANCH   6   7
ENDBRANCH   5   6
ENDBRANCH   3   5
ENDBRANCH   1   3
TORSDOF 15
ENDMDL
MODEL 11
REMARK VINA RESULT:      -4.4     25.723     27.515
REMARK  15 active torsions:
REMARK  status: ('A' for Active; 'I' for Inactive)
REMARK    1  A    between atoms: O_1  and  C_22 
REMARK    2  A    between atoms: C_3  and  C_4 
REMARK    3  A    between atoms: C_3  and  C_5 
REMARK    4  A    between atoms: C_4  and  C_6 
REMARK    5  A    between atoms: C_5  and  C_7 
REMARK    6  A    between atoms: C_9  and  C_10 
REMARK    7  A    between atoms: C_9  and  C_13 
REMARK    8  A    between atoms: C_10  and  C_14 
REMARK    9  A    between atoms: C_11  and  C_12 
REMARK   10  A    between atoms: C_12  and  C_16 
REMARK   11  A    between atoms: C_13  and  C_22 
REMARK   12  A    between atoms: C_15  and  C_17 
REMARK   13  A    between atoms: C_15  and  C_20 
REMARK   14  A    between atoms: C_18  and  C_19 
REMARK   15  A    between atoms: C_18  and  C_21 
ROOT
HETATM    1  O   UNL     1      31.097 -21.355 -15.212  1.00  0.00    -0.776 OA
HETATM    2  H   UNL     1      30.762 -21.848 -14.451  1.00  0.00     0.167 HD
ENDROOT
BRANCH   1   3
HETATM    3  C   UNL     1      30.777 -20.057 -15.405  1.00  0.00     0.139 C 
HETATM    4  O   UNL     1      30.823 -19.575 -16.527  1.00  0.00    -0.650 OA
BRANCH   3   5
HETATM    5  C   UNL     1      30.376 -19.204 -14.233  1.00  0.00     0.110 C 
BRANCH   5   6
HETATM    6  C   UNL     1      31.234 -19.479 -12.990  1.00  0.00     0.014 C 
BRANCH   6   7
HETATM    7  C   UNL     1      30.465 -20.231 -11.896  1.00  0.00     0.027 C 
BRANCH   7   8
HETATM    8  C   UNL     1      31.332 -20.369 -10.669  1.00  0.00    -0.030 C 
HETATM    9  C   UNL     1      31.039 -19.876  -9.451  1.00  0.00    -0.027 C 
BRANCH   9  10
HETATM   10  C   UNL     1      29.784 -19.121  -9.093  1.00  0.00     0.053 C 
BRANCH  10  11
HETATM   11  C   UNL     1      30.108 -17.766  -8.504  1.00  0.00    -0.027 C 
HETATM   12  C   UNL     1      30.662 -16.709  -9.133  1.00  0.00    -0.027 C 
BRANCH  12  13
HETATM   13  C   UNL     1      31.068 -16.627 -10.582  1.00  0.00     0.053 C 
BRANCH  13  14
HETATM   14  C   UNL     1      29.851 -16.407 -11.449  1.00  0.00    -0.027 C 
HETATM   15  C   UNL     1      29.380 -15.203 -11.831  1.00  0.00    -0.027 C 
BRANCH  15  16
HETATM   16  C   UNL     1      29.991 -13.883 -11.437  1.00  0.00     0.053 C 
BRANCH  16  17
HETATM   17  C   UNL     1      28.968 -12.964 -10.817  1.00  0.00    -0.027 C 
HETATM   18  C   UNL     1      29.148 -12.322  -9.650  1.00  0.00    -0.030 C 
BRANCH  18  19
HETATM   19  C   UNL     1      30.380 -12.431  -8.789  1.00  0.00     0.027 C 
BRANCH  19  20
HETATM   20  C   UNL     1      30.104 -13.371  -7.611  1.00  0.00     0.004 C 
BRANCH  20  21
HETATM   21  C   UNL     1      29.637 -12.592  -6.377  1.00  0.00    -0.000 C 
BRANCH  21  22
HETATM   22  C   UNL     1      28.155 -12.857  -6.091  1.00  0.00    -0.005 C 
HETATM   23  C   UNL     1      27.721 -14.212  -6.644  1.00  0.00     0.005 C 
ENDBRANCH  21  22
ENDBRANCH  20  21
ENDBRANCH  19  20
ENDBRANCH  18  19
ENDBRANCH  16  17
ENDBRANCH  15  16
ENDBRANCH  13  14
ENDBRANCH  12  13
ENDBRANCH  10  11
ENDBRANCH   9  10
ENDBRANCH   7   8
ENDBRANCH   6   7
ENDBRANCH   5   6
ENDBRANCH   3   5
ENDBRANCH   1   3
TORSDOF 15
ENDMDL
MODEL 12
REMARK VINA RESULT:      -4.4     25.765     28.013
REMARK  15 active torsions:
REMARK  status: ('A' for Active; 'I' for Inactive)
REMARK    1  A    between atoms: O_1  and  C_22 
REMARK    2  A    between atoms: C_3  and  C_4 
REMARK    3  A    between atoms: C_3  and  C_5 
REMARK    4  A    between atoms: C_4  and  C_6 
REMARK    5  A    between atoms: C_5  and  C_7 
REMARK    6  A    between atoms: C_9  and  C_10 
REMARK    7  A    between atoms: C_9  and  C_13 
REMARK    8  A    between atoms: C_10  and  C_14 
REMARK    9  A    between atoms: C_11  and  C_12 
REMARK   10  A    between atoms: C_12  and  C_16 
REMARK   11  A    between atoms: C_13  and  C_22 
REMARK   12  A    between atoms: C_15  and  C_17 
REMARK   13  A    between atoms: C_15  and  C_20 
REMARK   14  A    between atoms: C_18  and  C_19 
REMARK   15  A    between atoms: C_18  and  C_21 
ROOT
HETATM    1  O   UNL     1      29.839 -21.157  -8.992  1.00  0.00    -0.776 OA
HETATM    2  H   UNL     1      28.930 -20.827  -8.951  1.00  0.00     0.167 HD
ENDROOT
BRANCH   1   3
HETATM    3  C   UNL     1      30.809 -20.468  -9.630  1.00  0.00     0.139 C 
HETATM    4  O   UNL     1      31.273 -20.891 -10.679  1.00  0.00    -0.650 OA
BRANCH   3   5
HETATM    5  C   UNL     1      31.325 -19.184  -9.040  1.00  0.00     0.110 C 
BRANCH   5   6
HETATM    6  C   UNL     1      30.293 -18.503  -8.130  1.00  0.00     0.014 C 
BRANCH   6   7
HETATM    7  C   UNL     1      30.102 -17.017  -8.460  1.00  0.00     0.027 C 
BRANCH   7   8
HETATM    8  C   UNL     1      29.876 -16.851  -9.942  1.00  0.00    -0.030 C 
HETATM    9  C   UNL     1      30.150 -15.738 -10.649  1.00  0.00    -0.027 C 
BRANCH   9  10
HETATM   10  C   UNL     1      30.752 -14.473 -10.091  1.00  0.00     0.053 C 
BRANCH  10  11
HETATM   11  C   UNL     1      29.685 -13.443  -9.794  1.00  0.00    -0.027 C 
HETATM   12  C   UNL     1      29.157 -12.540 -10.646  1.00  0.00    -0.027 C 
BRANCH  12  13
HETATM   13  C   UNL     1      29.495 -12.362 -12.104  1.00  0.00     0.053 C 
BRANCH  13  14
HETATM   14  C   UNL     1      28.690 -13.326 -12.943  1.00  0.00    -0.027 C 
HETATM   15  C   UNL     1      29.167 -14.017 -13.999  1.00  0.00    -0.027 C 
BRANCH  15  16
HETATM   16  C   UNL     1      30.579 -13.919 -14.516  1.00  0.00     0.053 C 
BRANCH  16  17
HETATM   17  C   UNL     1      31.528 -14.752 -13.691  1.00  0.00    -0.027 C 
HETATM   18  C   UNL     1      31.763 -16.058 -13.910  1.00  0.00    -0.030 C 
BRANCH  18  19
HETATM   19  C   UNL     1      31.112 -16.880 -14.994  1.00  0.00     0.027 C 
BRANCH  19  20
HETATM   20  C   UNL     1      29.858 -17.563 -14.438  1.00  0.00     0.004 C 
BRANCH  20  21
HETATM   21  C   UNL     1      30.217 -18.572 -13.341  1.00  0.00    -0.000 C 
BRANCH  21  22
HETATM   22  C   UNL     1      30.269 -19.997 -13.905  1.00  0.00    -0.005 C 
HETATM   23  C   UNL     1      31.701 -20.410 -14.228  1.00  0.00     0.005 C 
ENDBRANCH  21  22
ENDBRANCH  20  21
ENDBRANCH  19  20
ENDBRANCH  18  19
ENDBRANCH  16  17
ENDBRANCH  15  16
ENDBRANCH  13  14
ENDBRANCH  12  13
ENDBRANCH  10  11
ENDBRANCH   9  10
ENDBRANCH   7   8
ENDBRANCH   6   7
ENDBRANCH   5   6
ENDBRANCH   3   5
ENDBRANCH   1   3
TORSDOF 15
ENDMDL
MODEL 13
REMARK VINA RESULT:      -4.4     24.427     26.256
REMARK  15 active torsions:
REMARK  status: ('A' for Active; 'I' for Inactive)
REMARK    1  A    between atoms: O_1  and  C_22 
REMARK    2  A    between atoms: C_3  and  C_4 
REMARK    3  A    between atoms: C_3  and  C_5 
REMARK    4  A    between atoms: C_4  and  C_6 
REMARK    5  A    between atoms: C_5  and  C_7 
REMARK    6  A    between atoms: C_9  and  C_10 
REMARK    7  A    between atoms: C_9  and  C_13 
REMARK    8  A    between atoms: C_10  and  C_14 
REMARK    9  A    between atoms: C_11  and  C_12 
REMARK   10  A    between atoms: C_12  and  C_16 
REMARK   11  A    between atoms: C_13  and  C_22 
REMARK   12  A    between atoms: C_15  and  C_17 
REMARK   13  A    between atoms: C_15  and  C_20 
REMARK   14  A    between atoms: C_18  and  C_19 
REMARK   15  A    between atoms: C_18  and  C_21 
ROOT
HETATM    1  O   UNL     1      29.889 -21.068  -8.977  1.00  0.00    -0.776 OA
HETATM    2  H   UNL     1      29.077 -21.536  -8.738  1.00  0.00     0.167 HD
ENDROOT
BRANCH   1   3
HETATM    3  C   UNL     1      30.552 -20.308  -8.080  1.00  0.00     0.139 C 
HETATM    4  O   UNL     1      30.817 -20.756  -6.974  1.00  0.00    -0.650 OA
BRANCH   3   5
HETATM    5  C   UNL     1      30.952 -18.904  -8.440  1.00  0.00     0.110 C 
BRANCH   5   6
HETATM    6  C   UNL     1      29.901 -18.202  -9.313  1.00  0.00     0.014 C 
BRANCH   6   7
HETATM    7  C   UNL     1      30.364 -18.019 -10.764  1.00  0.00     0.027 C 
BRANCH   7   8
HETATM    8  C   UNL     1      31.249 -16.802 -10.865  1.00  0.00    -0.030 C 
HETATM    9  C   UNL     1      30.821 -15.548 -11.103  1.00  0.00    -0.027 C 
BRANCH   9  10
HETATM   10  C   UNL     1      29.382 -15.135 -11.285  1.00  0.00     0.053 C 
BRANCH  10  11
HETATM   11  C   UNL     1      29.269 -13.657 -11.585  1.00  0.00    -0.027 C 
HETATM   12  C   UNL     1      29.672 -12.629 -10.810  1.00  0.00    -0.027 C 
BRANCH  12  13
HETATM   13  C   UNL     1      30.350 -12.717  -9.466  1.00  0.00     0.053 C 
BRANCH  13  14
HETATM   14  C   UNL     1      29.337 -12.520  -8.363  1.00  0.00    -0.027 C 
HETATM   15  C   UNL     1      28.784 -13.510  -7.633  1.00  0.00    -0.027 C 
BRANCH  15  16
HETATM   16  C   UNL     1      29.082 -14.975  -7.819  1.00  0.00     0.053 C 
BRANCH  16  17
HETATM   17  C   UNL     1      29.769 -15.558  -6.609  1.00  0.00    -0.027 C 
HETATM   18  C   UNL     1      31.102 -15.685  -6.492  1.00  0.00    -0.030 C 
BRANCH  18  19
HETATM   19  C   UNL     1      32.100 -15.279  -7.547  1.00  0.00     0.027 C 
BRANCH  19  20
HETATM   20  C   UNL     1      33.028 -14.196  -6.987  1.00  0.00     0.004 C 
BRANCH  20  21
HETATM   21  C   UNL     1      32.249 -13.174  -6.152  1.00  0.00    -0.000 C 
BRANCH  21  22
HETATM   22  C   UNL     1      32.552 -11.744  -6.616  1.00  0.00    -0.005 C 
HETATM   23  C   UNL     1      32.441 -10.755  -5.459  1.00  0.00     0.005 C 
ENDBRANCH  21  22
ENDBRANCH  20  21
ENDBRANCH  19  20
ENDBRANCH  18  19
ENDBRANCH  16  17
ENDBRANCH  15  16
ENDBRANCH  13  14
ENDBRANCH  12  13
ENDBRANCH  10  11
ENDBRANCH   9  10
ENDBRANCH   7   8
ENDBRANCH   6   7
ENDBRANCH   5   6
ENDBRANCH   3   5
ENDBRANCH   1   3
TORSDOF 15
ENDMDL
MODEL 14
REMARK VINA RESULT:      -4.4     25.326     27.435
REMARK  15 active torsions:
REMARK  status: ('A' for Active; 'I' for Inactive)
REMARK    1  A    between atoms: O_1  and  C_22 
REMARK    2  A    between atoms: C_3  and  C_4 
REMARK    3  A    between atoms: C_3  and  C_5 
REMARK    4  A    between atoms: C_4  and  C_6 
REMARK    5  A    between atoms: C_5  and  C_7 
REMARK    6  A    between atoms: C_9  and  C_10 
REMARK    7  A    between atoms: C_9  and  C_13 
REMARK    8  A    between atoms: C_10  and  C_14 
REMARK    9  A    between atoms: C_11  and  C_12 
REMARK   10  A    between atoms: C_12  and  C_16 
REMARK   11  A    between atoms: C_13  and  C_22 
REMARK   12  A    between atoms: C_15  and  C_17 
REMARK   13  A    between atoms: C_15  and  C_20 
REMARK   14  A    between atoms: C_18  and  C_19 
REMARK   15  A    between atoms: C_18  and  C_21 
ROOT
HETATM    1  O   UNL     1      31.488 -21.348  -5.269  1.00  0.00    -0.776 OA
HETATM    2  H   UNL     1      31.614 -22.269  -5.535  1.00  0.00     0.167 HD
ENDROOT
BRANCH   1   3
HETATM    3  C   UNL     1      30.913 -20.450  -6.097  1.00  0.00     0.139 C 
HETATM    4  O   UNL     1      30.706 -20.740  -7.266  1.00  0.00    -0.650 OA
BRANCH   3   5
HETATM    5  C   UNL     1      30.541 -19.087  -5.580  1.00  0.00     0.110 C 
BRANCH   5   6
HETATM    6  C   UNL     1      31.111 -18.818  -4.180  1.00  0.00     0.014 C 
BRANCH   6   7
HETATM    7  C   UNL     1      30.068 -18.235  -3.218  1.00  0.00     0.027 C 
BRANCH   7   8
HETATM    8  C   UNL     1      30.762 -17.502  -2.099  1.00  0.00    -0.030 C 
HETATM    9  C   UNL     1      31.109 -16.201  -2.120  1.00  0.00    -0.027 C 
BRANCH   9  10
HETATM   10  C   UNL     1      30.844 -15.244  -3.255  1.00  0.00     0.053 C 
BRANCH  10  11
HETATM   11  C   UNL     1      29.495 -14.576  -3.105  1.00  0.00    -0.027 C 
HETATM   12  C   UNL     1      29.132 -13.352  -3.539  1.00  0.00    -0.027 C 
BRANCH  12  13
HETATM   13  C   UNL     1      29.987 -12.369  -4.298  1.00  0.00     0.053 C 
BRANCH  13  14
HETATM   14  C   UNL     1      29.152 -11.647  -5.330  1.00  0.00    -0.027 C 
HETATM   15  C   UNL     1      29.058 -11.996  -6.629  1.00  0.00    -0.027 C 
BRANCH  15  16
HETATM   16  C   UNL     1      29.787 -13.155  -7.257  1.00  0.00     0.053 C 
BRANCH  16  17
HETATM   17  C   UNL     1      29.035 -14.449  -7.067  1.00  0.00    -0.027 C 
HETATM   18  C   UNL     1      29.629 -15.645  -6.909  1.00  0.00    -0.030 C 
BRANCH  18  19
HETATM   19  C   UNL     1      31.120 -15.871  -6.908  1.00  0.00     0.027 C 
BRANCH  19  20
HETATM   20  C   UNL     1      31.525 -16.635  -8.173  1.00  0.00     0.004 C 
BRANCH  20  21
HETATM   21  C   UNL     1      30.326 -17.365  -8.788  1.00  0.00    -0.000 C 
BRANCH  21  22
HETATM   22  C   UNL     1      30.250 -17.116 -10.299  1.00  0.00    -0.005 C 
HETATM   23  C   UNL     1      30.844 -15.759 -10.664  1.00  0.00     0.005 C 
ENDBRANCH  21  22
ENDBRANCH  20  21
ENDBRANCH  19  20
ENDBRANCH  18  19
ENDBRANCH  16  17
ENDBRANCH  15  16
ENDBRANCH  13  14
ENDBRANCH  12  13
ENDBRANCH  10  11
ENDBRANCH   9  10
ENDBRANCH   7   8
ENDBRANCH   6   7
ENDBRANCH   5   6
ENDBRANCH   3   5
ENDBRANCH   1   3
TORSDOF 15
ENDMDL
MODEL 15
REMARK VINA RESULT:      -4.4      4.248      9.434
REMARK  15 active torsions:
REMARK  status: ('A' for Active; 'I' for Inactive)
REMARK    1  A    between atoms: O_1  and  C_22 
REMARK    2  A    between atoms: C_3  and  C_4 
REMARK    3  A    between atoms: C_3  and  C_5 
REMARK    4  A    between atoms: C_4  and  C_6 
REMARK    5  A    between atoms: C_5  and  C_7 
REMARK    6  A    between atoms: C_9  and  C_10 
REMARK    7  A    between atoms: C_9  and  C_13 
REMARK    8  A    between atoms: C_10  and  C_14 
REMARK    9  A    between atoms: C_11  and  C_12 
REMARK   10  A    between atoms: C_12  and  C_16 
REMARK   11  A    between atoms: C_13  and  C_22 
REMARK   12  A    between atoms: C_15  and  C_17 
REMARK   13  A    between atoms: C_15  and  C_20 
REMARK   14  A    between atoms: C_18  and  C_19 
REMARK   15  A    between atoms: C_18  and  C_21 
ROOT
HETATM    1  O   UNL     1      40.685   7.518  -9.469  1.00  0.00    -0.776 OA
HETATM    2  H   UNL     1      40.240   7.420  -8.615  1.00  0.00     0.167 HD
ENDROOT
BRANCH   1   3
HETATM    3  C   UNL     1      40.333   8.488 -10.338  1.00  0.00     0.139 C 
HETATM    4  O   UNL     1      40.990   9.517 -10.407  1.00  0.00    -0.650 OA
BRANCH   3   5
HETATM    5  C   UNL     1      39.124   8.305 -11.213  1.00  0.00     0.110 C 
BRANCH   5   6
HETATM    6  C   UNL     1      39.304   7.167 -12.228  1.00  0.00     0.014 C 
BRANCH   6   7
HETATM    7  C   UNL     1      39.716   7.673 -13.617  1.00  0.00     0.027 C 
BRANCH   7   8
HETATM    8  C   UNL     1      38.869   7.006 -14.672  1.00  0.00    -0.030 C 
HETATM    9  C   UNL     1      38.179   7.648 -15.634  1.00  0.00    -0.027 C 
BRANCH   9  10
HETATM   10  C   UNL     1      38.150   9.141 -15.840  1.00  0.00     0.053 C 
BRANCH  10  11
HETATM   11  C   UNL     1      37.111   9.797 -14.957  1.00  0.00    -0.027 C 
HETATM   12  C   UNL     1      37.324  10.654 -13.938  1.00  0.00    -0.027 C 
BRANCH  12  13
HETATM   13  C   UNL     1      38.653  11.175 -13.453  1.00  0.00     0.053 C 
BRANCH  13  14
HETATM   14  C   UNL     1      38.876  12.578 -13.966  1.00  0.00    -0.027 C 
HETATM   15  C   UNL     1      39.666  12.904 -15.009  1.00  0.00    -0.027 C 
BRANCH  15  16
HETATM   16  C   UNL     1      40.465  11.914 -15.817  1.00  0.00     0.053 C 
BRANCH  16  17
HETATM   17  C   UNL     1      40.112  11.983 -17.282  1.00  0.00    -0.027 C 
HETATM   18  C   UNL     1      40.422  11.026 -18.174  1.00  0.00    -0.030 C 
BRANCH  18  19
HETATM   19  C   UNL     1      41.173   9.759 -17.850  1.00  0.00     0.027 C 
BRANCH  19  20
HETATM   20  C   UNL     1      41.035   8.768 -19.010  1.00  0.00     0.004 C 
BRANCH  20  21
HETATM   21  C   UNL     1      40.126   7.593 -18.631  1.00  0.00    -0.000 C 
BRANCH  21  22
HETATM   22  C   UNL     1      39.017   7.402 -19.672  1.00  0.00    -0.005 C 
HETATM   23  C   UNL     1      37.990   8.527 -19.596  1.00  0.00     0.005 C 
ENDBRANCH  21  22
ENDBRANCH  20  21
ENDBRANCH  19  20
ENDBRANCH  18  19
ENDBRANCH  16  17
ENDBRANCH  15  16
ENDBRANCH  13  14
ENDBRANCH  12  13
ENDBRANCH  10  11
ENDBRANCH   9  10
ENDBRANCH   7   8
ENDBRANCH   6   7
ENDBRANCH   5   6
ENDBRANCH   3   5
ENDBRANCH   1   3
TORSDOF 15
ENDMDL
MODEL 16
REMARK VINA RESULT:      -4.3      3.300      6.484
REMARK  15 active torsions:
REMARK  status: ('A' for Active; 'I' for Inactive)
REMARK    1  A    between atoms: O_1  and  C_22 
REMARK    2  A    between atoms: C_3  and  C_4 
REMARK    3  A    between atoms: C_3  and  C_5 
REMARK    4  A    between atoms: C_4  and  C_6 
REMARK    5  A    between atoms: C_5  and  C_7 
REMARK    6  A    between atoms: C_9  and  C_10 
REMARK    7  A    between atoms: C_9  and  C_13 
REMARK    8  A    between atoms: C_10  and  C_14 
REMARK    9  A    between atoms: C_11  and  C_12 
REMARK   10  A    between atoms: C_12  and  C_16 
REMARK   11  A    between atoms: C_13  and  C_22 
REMARK   12  A    between atoms: C_15  and  C_17 
REMARK   13  A    between atoms: C_15  and  C_20 
REMARK   14  A    between atoms: C_18  and  C_19 
REMARK   15  A    between atoms: C_18  and  C_21 
ROOT
HETATM    1  O   UNL     1      38.620  13.352  -5.600  1.00  0.00    -0.776 OA
HETATM    2  H   UNL     1      39.072  12.936  -4.853  1.00  0.00     0.167 HD
ENDROOT
BRANCH   1   3
HETATM    3  C   UNL     1      37.593  12.742  -6.228  1.00  0.00     0.139 C 
HETATM    4  O   UNL     1      36.446  13.122  -6.038  1.00  0.00    -0.650 OA
BRANCH   3   5
HETATM    5  C   UNL     1      37.862  11.588  -7.154  1.00  0.00     0.110 C 
BRANCH   5   6
HETATM    6  C   UNL     1      36.919  10.403  -6.899  1.00  0.00     0.014 C 
BRANCH   6   7
HETATM    7  C   UNL     1      37.294   9.608  -5.642  1.00  0.00     0.027 C 
BRANCH   7   8
HETATM    8  C   UNL     1      37.807   8.246  -6.036  1.00  0.00    -0.030 C 
HETATM    9  C   UNL     1      38.595   7.463  -5.275  1.00  0.00    -0.027 C 
BRANCH   9  10
HETATM   10  C   UNL     1      39.082   7.798  -3.888  1.00  0.00     0.053 C 
BRANCH  10  11
HETATM   11  C   UNL     1      40.580   8.009  -3.869  1.00  0.00    -0.027 C 
HETATM   12  C   UNL     1      41.254   9.138  -4.170  1.00  0.00    -0.027 C 
BRANCH  12  13
HETATM   13  C   UNL     1      40.665  10.464  -4.579  1.00  0.00     0.053 C 
BRANCH  13  14
HETATM   14  C   UNL     1      41.525  11.107  -5.640  1.00  0.00    -0.027 C 
HETATM   15  C   UNL     1      41.531  10.763  -6.944  1.00  0.00    -0.027 C 
BRANCH  15  16
HETATM   16  C   UNL     1      40.688   9.667  -7.542  1.00  0.00     0.053 C 
BRANCH  16  17
HETATM   17  C   UNL     1      41.314   9.109  -8.795  1.00  0.00    -0.027 C 
HETATM   18  C   UNL     1      40.775   8.117  -9.526  1.00  0.00    -0.030 C 
BRANCH  18  19
HETATM   19  C   UNL     1      39.482   7.413  -9.198  1.00  0.00     0.027 C 
BRANCH  19  20
HETATM   20  C   UNL     1      38.546   7.466 -10.410  1.00  0.00     0.004 C 
BRANCH  20  21
HETATM   21  C   UNL     1      39.255   6.987 -11.681  1.00  0.00    -0.000 C 
BRANCH  21  22
HETATM   22  C   UNL     1      39.060   7.988 -12.826  1.00  0.00    -0.005 C 
HETATM   23  C   UNL     1      39.378   7.350 -14.175  1.00  0.00     0.005 C 
ENDBRANCH  21  22
ENDBRANCH  20  21
ENDBRANCH  19  20
ENDBRANCH  18  19
ENDBRANCH  16  17
ENDBRANCH  15  16
ENDBRANCH  13  14
ENDBRANCH  12  13
ENDBRANCH  10  11
ENDBRANCH   9  10
ENDBRANCH   7   8
ENDBRANCH   6   7
ENDBRANCH   5   6
ENDBRANCH   3   5
ENDBRANCH   1   3
TORSDOF 15
ENDMDL
MODEL 17
REMARK VINA RESULT:      -4.3     24.321     26.126
REMARK  15 active torsions:
REMARK  status: ('A' for Active; 'I' for Inactive)
REMARK    1  A    between atoms: O_1  and  C_22 
REMARK    2  A    between atoms: C_3  and  C_4 
REMARK    3  A    between atoms: C_3  and  C_5 
REMARK    4  A    between atoms: C_4  and  C_6 
REMARK    5  A    between atoms: C_5  and  C_7 
REMARK    6  A    between atoms: C_9  and  C_10 
REMARK    7  A    between atoms: C_9  and  C_13 
REMARK    8  A    between atoms: C_10  and  C_14 
REMARK    9  A    between atoms: C_11  and  C_12 
REMARK   10  A    between atoms: C_12  and  C_16 
REMARK   11  A    between atoms: C_13  and  C_22 
REMARK   12  A    between atoms: C_15  and  C_17 
REMARK   13  A    between atoms: C_15  and  C_20 
REMARK   14  A    between atoms: C_18  and  C_19 
REMARK   15  A    between atoms: C_18  and  C_21 
ROOT
HETATM    1  O   UNL     1      31.946 -21.080  -9.990  1.00  0.00    -0.776 OA
HETATM    2  H   UNL     1      32.024 -20.986  -9.031  1.00  0.00     0.167 HD
ENDROOT
BRANCH   1   3
HETATM    3  C   UNL     1      30.994 -20.422 -10.686  1.00  0.00     0.139 C 
HETATM    4  O   UNL     1      30.724 -20.764 -11.828  1.00  0.00    -0.650 OA
BRANCH   3   5
HETATM    5  C   UNL     1      30.276 -19.261 -10.056  1.00  0.00     0.110 C 
BRANCH   5   6
HETATM    6  C   UNL     1      31.227 -18.109  -9.700  1.00  0.00     0.014 C 
BRANCH   6   7
HETATM    7  C   UNL     1      30.928 -16.829 -10.491  1.00  0.00     0.027 C 
BRANCH   7   8
HETATM    8  C   UNL     1      29.610 -16.250 -10.040  1.00  0.00    -0.030 C 
HETATM    9  C   UNL     1      29.006 -15.178 -10.586  1.00  0.00    -0.027 C 
BRANCH   9  10
HETATM   10  C   UNL     1      29.526 -14.383 -11.757  1.00  0.00     0.053 C 
BRANCH  10  11
HETATM   11  C   UNL     1      28.803 -13.061 -11.886  1.00  0.00    -0.027 C 
HETATM   12  C   UNL     1      28.797 -12.039 -11.006  1.00  0.00    -0.027 C 
BRANCH  12  13
HETATM   13  C   UNL     1      29.532 -11.969  -9.692  1.00  0.00     0.053 C 
BRANCH  13  14
HETATM   14  C   UNL     1      30.991 -11.661  -9.930  1.00  0.00    -0.027 C 
HETATM   15  C   UNL     1      32.006 -12.054  -9.133  1.00  0.00    -0.027 C 
BRANCH  15  16
HETATM   16  C   UNL     1      31.836 -12.851  -7.867  1.00  0.00     0.053 C 
BRANCH  16  17
HETATM   17  C   UNL     1      32.294 -14.277  -8.046  1.00  0.00    -0.027 C 
HETATM   18  C   UNL     1      31.881 -15.300  -7.277  1.00  0.00    -0.030 C 
BRANCH  18  19
HETATM   19  C   UNL     1      30.917 -15.174  -6.124  1.00  0.00     0.027 C 
BRANCH  19  20
HETATM   20  C   UNL     1      29.503 -15.525  -6.595  1.00  0.00     0.004 C 
BRANCH  20  21
HETATM   21  C   UNL     1      28.450 -14.683  -5.866  1.00  0.00    -0.000 C 
BRANCH  21  22
HETATM   22  C   UNL     1      28.097 -13.429  -6.676  1.00  0.00    -0.005 C 
HETATM   23  C   UNL     1      28.709 -12.179  -6.051  1.00  0.00     0.005 C 
ENDBRANCH  21  22
ENDBRANCH  20  21
ENDBRANCH  19  20
ENDBRANCH  18  19
ENDBRANCH  16  17
ENDBRANCH  15  16
ENDBRANCH  13  14
ENDBRANCH  12  13
ENDBRANCH  10  11
ENDBRANCH   9  10
ENDBRANCH   7   8
ENDBRANCH   6   7
ENDBRANCH   5   6
ENDBRANCH   3   5
ENDBRANCH   1   3
TORSDOF 15
ENDMDL
MODEL 18
REMARK VINA RESULT:      -4.3     24.622     26.673
REMARK  15 active torsions:
REMARK  status: ('A' for Active; 'I' for Inactive)
REMARK    1  A    between atoms: O_1  and  C_22 
REMARK    2  A    between atoms: C_3  and  C_4 
REMARK    3  A    between atoms: C_3  and  C_5 
REMARK    4  A    between atoms: C_4  and  C_6 
REMARK    5  A    between atoms: C_5  and  C_7 
REMARK    6  A    between atoms: C_9  and  C_10 
REMARK    7  A    between atoms: C_9  and  C_13 
REMARK    8  A    between atoms: C_10  and  C_14 
REMARK    9  A    between atoms: C_11  and  C_12 
REMARK   10  A    between atoms: C_12  and  C_16 
REMARK   11  A    between atoms: C_13  and  C_22 
REMARK   12  A    between atoms: C_15  and  C_17 
REMARK   13  A    between atoms: C_15  and  C_20 
REMARK   14  A    between atoms: C_18  and  C_19 
REMARK   15  A    between atoms: C_18  and  C_21 
ROOT
HETATM    1  O   UNL     1      30.732 -21.479  -5.320  1.00  0.00    -0.776 OA
HETATM    2  H   UNL     1      31.307 -22.226  -5.536  1.00  0.00     0.167 HD
ENDROOT
BRANCH   1   3
HETATM    3  C   UNL     1      30.962 -20.246  -5.822  1.00  0.00     0.139 C 
HETATM    4  O   UNL     1      31.008 -20.076  -7.031  1.00  0.00    -0.650 OA
BRANCH   3   5
HETATM    5  C   UNL     1      31.174 -19.087  -4.888  1.00  0.00     0.110 C 
BRANCH   5   6
HETATM    6  C   UNL     1      29.888 -18.692  -4.147  1.00  0.00     0.014 C 
BRANCH   6   7
HETATM    7  C   UNL     1      29.842 -17.198  -3.798  1.00  0.00     0.027 C 
BRANCH   7   8
HETATM    8  C   UNL     1      30.410 -16.981  -2.418  1.00  0.00    -0.030 C 
HETATM    9  C   UNL     1      31.503 -16.247  -2.135  1.00  0.00    -0.027 C 
BRANCH   9  10
HETATM   10  C   UNL     1      32.335 -15.494  -3.141  1.00  0.00     0.053 C 
BRANCH  10  11
HETATM   11  C   UNL     1      32.241 -14.000  -2.923  1.00  0.00    -0.027 C 
HETATM   12  C   UNL     1      31.280 -13.165  -3.369  1.00  0.00    -0.027 C 
BRANCH  12  13
HETATM   13  C   UNL     1      30.060 -13.534  -4.175  1.00  0.00     0.053 C 
BRANCH  13  14
HETATM   14  C   UNL     1      29.390 -12.285  -4.698  1.00  0.00    -0.027 C 
HETATM   15  C   UNL     1      29.036 -12.077  -5.983  1.00  0.00    -0.027 C 
BRANCH  15  16
HETATM   16  C   UNL     1      29.270 -13.057  -7.102  1.00  0.00     0.053 C 
BRANCH  16  17
HETATM   17  C   UNL     1      30.156 -12.472  -8.173  1.00  0.00    -0.027 C 
HETATM   18  C   UNL     1      31.500 -12.475  -8.120  1.00  0.00    -0.030 C 
BRANCH  18  19
HETATM   19  C   UNL     1      32.314 -13.049  -6.987  1.00  0.00     0.027 C 
BRANCH  19  20
HETATM   20  C   UNL     1      32.853 -14.427  -7.387  1.00  0.00     0.004 C 
BRANCH  20  21
HETATM   21  C   UNL     1      32.112 -15.547  -6.650  1.00  0.00    -0.000 C 
BRANCH  21  22
HETATM   22  C   UNL     1      31.472 -16.525  -7.643  1.00  0.00    -0.005 C 
HETATM   23  C   UNL     1      29.960 -16.590  -7.454  1.00  0.00     0.005 C 
ENDBRANCH  21  22
ENDBRANCH  20  21
ENDBRANCH  19  20
ENDBRANCH  18  19
ENDBRANCH  16  17
ENDBRANCH  15  16
ENDBRANCH  13  14
ENDBRANCH  12  13
ENDBRANCH  10  11
ENDBRANCH   9  10
ENDBRANCH   7   8
ENDBRANCH   6   7
ENDBRANCH   5   6
ENDBRANCH   3   5
ENDBRANCH   1   3
TORSDOF 15
ENDMDL
MODEL 19
REMARK VINA RESULT:      -4.3      3.704      8.695
REMARK  15 active torsions:
REMARK  status: ('A' for Active; 'I' for Inactive)
REMARK    1  A    between atoms: O_1  and  C_22 
REMARK    2  A    between atoms: C_3  and  C_4 
REMARK    3  A    between atoms: C_3  and  C_5 
REMARK    4  A    between atoms: C_4  and  C_6 
REMARK    5  A    between atoms: C_5  and  C_7 
REMARK    6  A    between atoms: C_9  and  C_10 
REMARK    7  A    between atoms: C_9  and  C_13 
REMARK    8  A    between atoms: C_10  and  C_14 
REMARK    9  A    between atoms: C_11  and  C_12 
REMARK   10  A    between atoms: C_12  and  C_16 
REMARK   11  A    between atoms: C_13  and  C_22 
REMARK   12  A    between atoms: C_15  and  C_17 
REMARK   13  A    between atoms: C_15  and  C_20 
REMARK   14  A    between atoms: C_18  and  C_19 
REMARK   15  A    between atoms: C_18  and  C_21 
ROOT
HETATM    1  O   UNL     1      39.746  11.312  -8.819  1.00  0.00    -0.776 OA
HETATM    2  H   UNL     1      40.614  11.736  -8.762  1.00  0.00     0.167 HD
ENDROOT
BRANCH   1   3
HETATM    3  C   UNL     1      39.503  10.125  -8.224  1.00  0.00     0.139 C 
HETATM    4  O   UNL     1      40.360   9.601  -7.529  1.00  0.00    -0.650 OA
BRANCH   3   5
HETATM    5  C   UNL     1      38.177   9.444  -8.430  1.00  0.00     0.110 C 
BRANCH   5   6
HETATM    6  C   UNL     1      37.403  10.022  -9.623  1.00  0.00     0.014 C 
BRANCH   6   7
HETATM    7  C   UNL     1      37.262   9.022 -10.777  1.00  0.00     0.027 C 
BRANCH   7   8
HETATM    8  C   UNL     1      38.083   7.791 -10.486  1.00  0.00    -0.030 C 
HETATM    9  C   UNL     1      39.106   7.344 -11.238  1.00  0.00    -0.027 C 
BRANCH   9  10
HETATM   10  C   UNL     1      39.627   8.007 -12.488  1.00  0.00     0.053 C 
BRANCH  10  11
HETATM   11  C   UNL     1      40.643   9.078 -12.158  1.00  0.00    -0.027 C 
HETATM   12  C   UNL     1      40.813  10.265 -12.774  1.00  0.00    -0.027 C 
BRANCH  12  13
HETATM   13  C   UNL     1      40.012  10.811 -13.929  1.00  0.00     0.053 C 
BRANCH  13  14
HETATM   14  C   UNL     1      38.635  11.216 -13.458  1.00  0.00    -0.027 C 
HETATM   15  C   UNL     1      37.485  10.945 -14.107  1.00  0.00    -0.027 C 
BRANCH  15  16
HETATM   16  C   UNL     1      37.397  10.209 -15.418  1.00  0.00     0.053 C 
BRANCH  16  17
HETATM   17  C   UNL     1      37.152   8.735 -15.209  1.00  0.00    -0.027 C 
HETATM   18  C   UNL     1      38.038   7.775 -15.528  1.00  0.00    -0.030 C 
BRANCH  18  19
HETATM   19  C   UNL     1      39.390   8.024 -16.147  1.00  0.00     0.027 C 
BRANCH  19  20
HETATM   20  C   UNL     1      39.563   7.132 -17.381  1.00  0.00     0.004 C 
BRANCH  20  21
HETATM   21  C   UNL     1      39.374   7.932 -18.674  1.00  0.00    -0.000 C 
BRANCH  21  22
HETATM   22  C   UNL     1      38.611   7.109 -19.719  1.00  0.00    -0.005 C 
HETATM   23  C   UNL     1      39.361   7.074 -21.047  1.00  0.00     0.005 C 
ENDBRANCH  21  22
ENDBRANCH  20  21
ENDBRANCH  19  20
ENDBRANCH  18  19
ENDBRANCH  16  17
ENDBRANCH  15  16
ENDBRANCH  13  14
ENDBRANCH  12  13
ENDBRANCH  10  11
ENDBRANCH   9  10
ENDBRANCH   7   8
ENDBRANCH   6   7
ENDBRANCH   5   6
ENDBRANCH   3   5
ENDBRANCH   1   3
TORSDOF 15
ENDMDL
MODEL 20
REMARK VINA RESULT:      -4.3      3.260      7.310
REMARK  15 active torsions:
REMARK  status: ('A' for Active; 'I' for Inactive)
REMARK    1  A    between atoms: O_1  and  C_22 
REMARK    2  A    between atoms: C_3  and  C_4 
REMARK    3  A    between atoms: C_3  and  C_5 
REMARK    4  A    between atoms: C_4  and  C_6 
REMARK    5  A    between atoms: C_5  and  C_7 
REMARK    6  A    between atoms: C_9  and  C_10 
REMARK    7  A    between atoms: C_9  and  C_13 
REMARK    8  A    between atoms: C_10  and  C_14 
REMARK    9  A    between atoms: C_11  and  C_12 
REMARK   10  A    between atoms: C_12  and  C_16 
REMARK   11  A    between atoms: C_13  and  C_22 
REMARK   12  A    between atoms: C_15  and  C_17 
REMARK   13  A    between atoms: C_15  and  C_20 
REMARK   14  A    between atoms: C_18  and  C_19 
REMARK   15  A    between atoms: C_18  and  C_21 
ROOT
HETATM    1  O   UNL     1      39.451  10.172  -4.765  1.00  0.00    -0.776 OA
HETATM    2  H   UNL     1      39.720  10.606  -5.587  1.00  0.00     0.167 HD
ENDROOT
BRANCH   1   3
HETATM    3  C   UNL     1      38.269   9.528  -4.664  1.00  0.00     0.139 C 
HETATM    4  O   UNL     1      38.067   8.759  -3.736  1.00  0.00    -0.650 OA
BRANCH   3   5
HETATM    5  C   UNL     1      37.205   9.751  -5.704  1.00  0.00     0.110 C 
BRANCH   5   6
HETATM    6  C   UNL     1      37.697   9.427  -7.122  1.00  0.00     0.014 C 
BRANCH   6   7
HETATM    7  C   UNL     1      37.844  10.678  -7.998  1.00  0.00     0.027 C 
BRANCH   7   8
HETATM    8  C   UNL     1      36.665  10.784  -8.933  1.00  0.00    -0.030 C 
HETATM    9  C   UNL     1      36.612  10.270 -10.176  1.00  0.00    -0.027 C 
BRANCH   9  10
HETATM   10  C   UNL     1      37.708   9.478 -10.842  1.00  0.00     0.053 C 
BRANCH  10  11
HETATM   11  C   UNL     1      37.604   8.007 -10.505  1.00  0.00    -0.027 C 
HETATM   12  C   UNL     1      38.615   7.145 -10.273  1.00  0.00    -0.027 C 
BRANCH  12  13
HETATM   13  C   UNL     1      40.091   7.455 -10.276  1.00  0.00     0.053 C 
BRANCH  13  14
HETATM   14  C   UNL     1      40.431   8.359  -9.115  1.00  0.00    -0.027 C 
HETATM   15  C   UNL     1      41.166   9.487  -9.203  1.00  0.00    -0.027 C 
BRANCH  15  16
HETATM   16  C   UNL     1      41.777  10.011 -10.476  1.00  0.00     0.053 C 
BRANCH  16  17
HETATM   17  C   UNL     1      40.787  10.828 -11.268  1.00  0.00    -0.027 C 
HETATM   18  C   UNL     1      40.672  10.776 -12.607  1.00  0.00    -0.030 C 
BRANCH  18  19
HETATM   19  C   UNL     1      41.516   9.911 -13.509  1.00  0.00     0.027 C 
BRANCH  19  20
HETATM   20  C   UNL     1      40.854   8.539 -13.672  1.00  0.00     0.004 C 
BRANCH  20  21
HETATM   21  C   UNL     1      39.363   8.677 -14.000  1.00  0.00    -0.000 C 
BRANCH  21  22
HETATM   22  C   UNL     1      38.782   7.340 -14.476  1.00  0.00    -0.005 C 
HETATM   23  C   UNL     1      39.221   7.025 -15.903  1.00  0.00     0.005 C 
ENDBRANCH  21  22
ENDBRANCH  20  21
ENDBRANCH  19  20
ENDBRANCH  18  19
ENDBRANCH  16  17
ENDBRANCH  15  16
ENDBRANCH  13  14
ENDBRANCH  12  13
ENDBRANCH  10  11
ENDBRANCH   9  10
ENDBRANCH   7   8
ENDBRANCH   6   7
ENDBRANCH   5   6
ENDBRANCH   3   5
ENDBRANCH   1   3
TORSDOF 15
ENDMDL
